
 OpenBabel11182308033D

 12 11  0  0  0  0  0  0  0  0999 V2000
    1.5997   -0.2147    0.6238 N   0  0  0  0  0  0  0  0  0  0  0  0
    0.8705   -0.3500   -0.5809 C   0  0  0  0  0  0  0  0  0  0  0  0
    1.4909   -0.7595   -1.5916 O   0  0  0  0  0  0  0  0  0  0  0  0
   -0.5641   -0.0439   -0.7297 C   0  0  0  0  0  0  0  0  0  0  0  0
   -1.1805    0.4151    0.4770 N   0  3  0  0  0  0  0  0  0  0  0  0
    1.1775   -0.6308    1.4816 H   0  0  0  0  0  0  0  0  0  0  0  0
    2.5124    0.2863    0.6039 H   0  0  0  0  0  0  0  0  0  0  0  0
   -0.7249    0.7146   -1.5245 H   0  0  0  0  0  0  0  0  0  0  0  0
   -1.0477   -0.9828   -1.1216 H   0  0  0  0  0  0  0  0  0  0  0  0
   -1.2222    1.4620    0.5302 H   0  0  0  0  0  0  0  0  0  0  0  0
   -2.1672    0.0490    0.4826 H   0  0  0  0  0  0  0  0  0  0  0  0
   -0.7444    0.0546    1.3492 H   0  0  0  0  0  0  0  0  0  0  0  0
  1  2  1  0  0  0  0
  1  6  1  0  0  0  0
  1  7  1  0  0  0  0
  2  3  2  0  0  0  0
  2  4  1  0  0  0  0
  4  5  1  0  0  0  0
  4  8  1  0  0  0  0
  4  9  1  0  0  0  0
  5 10  1  0  0  0  0
  5 11  1  0  0  0  0
  5 12  1  0  0  0  0
M  CHG  1   5   1
M  END
$$$$
