 xtb: 6.5.0 (97a52f5)
          02192510383D

  9  0  0     0  0            999 V2000
    1.1448   -0.5600   -0.7931 O   0  0  0  0  0  0  0  0  0  0  0  0
    0.4599    0.2469    0.1445 C   0  0  0  0  0  0  0  0  0  0  0  0
   -1.0163   -0.1152    0.1031 C   0  0  0  0  0  0  0  0  0  0  0  0
    0.5912    1.3111   -0.1018 H   0  0  0  0  0  0  0  0  0  0  0  0
    0.8587    0.0769    1.1557 H   0  0  0  0  0  0  0  0  0  0  0  0
   -1.4074    0.0554   -0.8956 H   0  0  0  0  0  0  0  0  0  0  0  0
   -1.5690    0.4906    0.8152 H   0  0  0  0  0  0  0  0  0  0  0  0
   -1.1428   -1.1656    0.3485 H   0  0  0  0  0  0  0  0  0  0  0  0
    2.0809   -0.3401   -0.7764 H   0  0  0  0  0  0  0  0  0  0  0  0
M  END
