
     RDKit          3D

  8  7  0  0  0  0  0  0  0  0999 V2000
  -11.0472    0.2336    0.3882 H   0  0  0  0  0  0  0  0  0  0  0  0
  -10.6361    0.6118    1.3295 C   0  0  0  0  0  0  0  0  0  0  0  0
   -9.3867    1.2669    1.1025 O   0  0  0  0  0  0  0  0  0  0  0  0
   -8.4278    0.4591    0.5857 C   0  0  0  0  0  0  0  0  0  0  0  0
  -10.5174   -0.1987    2.0555 H   0  0  0  0  0  0  0  0  0  0  0  0
  -11.3334    1.3464    1.7415 H   0  0  0  0  0  0  0  0  0  0  0  0
   -8.5577   -0.7253    0.3219 O   0  0  0  0  0  0  0  0  0  0  0  0
   -7.4453    0.9118    0.3865 H   0  0  0  0  0  0  0  0  0  0  0  0
  2  5  1  0
  2  6  1  0
  2  1  1  0
  3  2  1  0
  4  3  1  0
  4  7  2  0
  4  8  1  0
M  END
