
 OpenBabel11182308033D

  8  7  0  0  0  0  0  0  0  0999 V2000
   -1.0539   -0.2170   -0.0092 C   0  0  0  0  0  0  0  0  0  0  0  0
    0.2850   -0.6432    0.1794 O   0  0  0  0  0  0  0  0  0  0  0  0
    1.3800    0.1788    0.0622 C   0  0  0  0  0  0  0  0  0  0  0  0
    1.1941    1.3828   -0.2296 O   0  0  0  0  0  0  0  0  0  0  0  0
   -1.5122   -0.1496    0.9892 H   0  0  0  0  0  0  0  0  0  0  0  0
   -1.1062    0.7224   -0.5933 H   0  0  0  0  0  0  0  0  0  0  0  0
   -1.5355   -1.0127   -0.6281 H   0  0  0  0  0  0  0  0  0  0  0  0
    2.3486   -0.2616    0.2294 H   0  0  0  0  0  0  0  0  0  0  0  0
  1  2  1  0  0  0  0
  1  5  1  0  0  0  0
  1  6  1  0  0  0  0
  1  7  1  0  0  0  0
  2  3  1  0  0  0  0
  3  4  2  0  0  0  0
  3  8  1  0  0  0  0
M  END
$$$$
