34

H 0.79091506 -1.58641439 -0.79473397
N 0.83593747 -1.10276562 0.10545577
C -0.49785443 -0.64789346 0.44137468
C -1.52829851 -1.33672905 -0.39369523
C 2.10111265 -0.42792446 0.22899369
C -0.84993476 0.65188895 0.86233027
C -2.19459213 1.08549232 1.26817893
N -1.02836398 2.95327178 0.79415827
C -0.18998891 1.93821343 0.35974949
C -2.20540412 2.44131106 1.32833199
C -2.08448554 -2.56066313 0.05285657
C -2.06656196 -0.72174165 -1.55492647
C -3.11281874 -3.18016490 -0.66941626
C -3.09137152 -1.34694745 -2.27794573
C -3.61815080 -2.57981923 -1.84104194
C 2.37517631 0.40478505 1.35060220
C 3.23080209 -0.94766569 -0.46101696
C 3.67212817 0.86739599 1.60622713
C 4.52003039 -0.46712327 -0.20259578
C 4.74935529 0.46545876 0.81228904
H -0.81032742 3.92236400 0.61542408
O 0.80502662 2.12382016 -0.33798919
H -1.70665886 -3.02438344 0.96637848
H -1.67374150 0.23713427 -1.90031958
H -3.52500777 -4.12822652 -0.31959918
H -3.48449466 -0.87310394 -3.17908875
H -4.41938941 -3.06309464 -2.40275289
H 1.58463303 0.68145877 2.04921856
H 3.09799123 -1.70802297 -1.23417614
H 3.83787642 1.54744373 2.44439655
H 5.35499892 -0.83661927 -0.80145508
H -3.01930978 0.42698526 1.50612806
H -3.00425323 3.10567340 1.62509312
H 5.75841936 0.82960517 1.01562526
