34

H 0.86976185 0.30403005 2.22517856
N 0.81127287 0.48512962 1.22126318
C -0.56440039 0.55366911 0.81203207
C -1.27322071 -0.75832010 0.75337320
C 1.85992307 -0.18920457 0.51011425
C -1.04764351 1.59622048 0.02382240
C -2.42254029 1.82642507 -0.41369550
N -1.14298384 3.49173286 -1.25801494
C -0.22117591 2.72413005 -0.56157625
C -2.42857784 2.95949197 -1.16398251
C -1.89437849 -1.26163311 1.92491771
C -1.43651035 -1.47134437 -0.46312876
C -2.61217815 -2.46418377 1.89277879
C -2.15688173 -2.67322436 -0.49197817
C -2.74183707 -3.18035638 0.68594263
C 1.80121101 -0.40197645 -0.89101942
C 3.09064818 -0.46114910 1.16214561
C 2.87730192 -0.98444412 -1.57194916
C 4.15495339 -1.04811069 0.46673298
C 4.05462488 -1.32691723 -0.89987518
H -0.85977200 4.32385189 -1.75396458
O 0.98194671 2.96867456 -0.49122658
H -1.81239409 -0.70883386 2.86312935
H -1.01295948 -1.08735966 -1.39129591
H -3.07332577 -2.84491232 2.80581307
H -2.26555986 -3.21637757 -1.43236853
H -3.30278287 -4.11650045 0.66088488
H 0.92985371 -0.09360555 -1.46761031
H 3.21255465 -0.23503559 2.22372660
H 2.79383718 -1.15947653 -2.64649350
H 5.07676410 -1.28106743 1.00371464
H -3.27600441 1.20525228 -0.18042481
H -3.25683901 3.44764170 -1.65776545
H 4.89070423 -1.77921441 -1.43713937
