 xtb: 6.5.0 (97a52f5)
          11182309113D

 34  0  0     0  0            999 V2000
    0.5278   -1.9194    1.1801 H   0  0  0  0  0  0  0  0  0  0  0  0
    0.5751   -0.9096    1.0720 N   0  0  0  0  0  0  0  0  0  0  0  0
   -0.6581   -0.3854    0.6788 C   0  0  0  0  0  0  0  0  0  0  0  0
   -1.3804   -1.1248   -0.3855 C   0  0  0  0  0  0  0  0  0  0  0  0
    1.7921   -0.5077    0.5260 C   0  0  0  0  0  0  0  0  0  0  0  0
   -1.1050    0.8062    1.1387 C   0  0  0  0  0  0  0  0  0  0  0  0
   -2.3738    1.4425    0.8686 C   0  0  0  0  0  0  0  0  0  0  0  0
   -1.3018    2.6825    2.3927 N   0  0  0  0  0  0  0  0  0  0  0  0
   -0.4214    1.6505    2.1514 C   0  0  0  0  0  0  0  0  0  0  0  0
   -2.4483    2.5457    1.6333 C   0  0  0  0  0  0  0  0  0  0  0  0
   -2.0880   -2.2889   -0.1055 C   0  0  0  0  0  0  0  0  0  0  0  0
   -1.2845   -0.6829   -1.7003 C   0  0  0  0  0  0  0  0  0  0  0  0
   -2.7087   -2.9908   -1.1234 C   0  0  0  0  0  0  0  0  0  0  0  0
   -1.9018   -1.3910   -2.7158 C   0  0  0  0  0  0  0  0  0  0  0  0
   -2.6155   -2.5430   -2.4303 C   0  0  0  0  0  0  0  0  0  0  0  0
    1.9348    0.6854   -0.1769 C   0  0  0  0  0  0  0  0  0  0  0  0
    2.9169   -1.3003    0.7494 C   0  0  0  0  0  0  0  0  0  0  0  0
    3.1737    1.0619   -0.6588 C   0  0  0  0  0  0  0  0  0  0  0  0
    4.1505   -0.9154    0.2646 C   0  0  0  0  0  0  0  0  0  0  0  0
    4.2864    0.2671   -0.4436 C   0  0  0  0  0  0  0  0  0  0  0  0
   -1.1224    3.4268    3.0454 H   0  0  0  0  0  0  0  0  0  0  0  0
    0.6575    1.5189    2.6862 O   0  0  0  0  0  0  0  0  0  0  0  0
   -2.1622   -2.6328    0.9166 H   0  0  0  0  0  0  0  0  0  0  0  0
   -0.7274    0.2151   -1.9220 H   0  0  0  0  0  0  0  0  0  0  0  0
   -3.2652   -3.8881   -0.8960 H   0  0  0  0  0  0  0  0  0  0  0  0
   -1.8237   -1.0419   -3.7348 H   0  0  0  0  0  0  0  0  0  0  0  0
   -3.0982   -3.0913   -3.2255 H   0  0  0  0  0  0  0  0  0  0  0  0
    1.0753    1.3170   -0.3419 H   0  0  0  0  0  0  0  0  0  0  0  0
    2.8138   -2.2221    1.3050 H   0  0  0  0  0  0  0  0  0  0  0  0
    3.2704    1.9884   -1.2062 H   0  0  0  0  0  0  0  0  0  0  0  0
    5.0125   -1.5412    0.4447 H   0  0  0  0  0  0  0  0  0  0  0  0
   -3.1092    1.0765    0.1804 H   0  0  0  0  0  0  0  0  0  0  0  0
   -3.2400    3.2667    1.7147 H   0  0  0  0  0  0  0  0  0  0  0  0
    5.2524    0.5683   -0.8199 H   0  0  0  0  0  0  0  0  0  0  0  0
M  END
