
     RDKit          3D

 74 78  0  0  0  0  0  0  0  0999 V2000
   -4.8290   -3.6645   -1.3723 C   0  0  0  0  0  0  0  0  0  0  0  0
   -5.4508   -2.6029   -2.0021 C   0  0  0  0  0  0  0  0  0  0  0  0
   -4.8331   -1.3737   -2.0526 C   0  0  0  0  0  0  0  0  0  0  0  0
   -3.5886   -1.1330   -1.4923 C   0  0  0  0  0  0  0  0  0  0  0  0
   -2.9787    0.1823   -1.5551 C   0  0  0  0  0  0  0  0  0  0  0  0
   -3.8628    1.3329   -2.0064 C   0  0  0  0  0  0  0  0  0  0  0  0
   -3.0067    2.5230   -2.2706 C   0  0  0  0  0  0  0  0  0  0  0  0
   -2.0173    2.4945   -3.2585 O   0  0  0  0  0  0  0  0  0  0  0  0
   -3.3159    3.4674   -1.5070 N   0  0  0  0  0  0  0  0  0  0  0  0
   -4.3788    3.1120   -0.6347 C   0  0  0  0  0  0  0  0  0  0  0  0
   -5.0474    3.8004    0.3552 C   0  0  0  0  0  0  0  0  0  0  0  0
   -6.0696    3.2373    1.0835 C   0  0  0  0  0  0  0  0  0  0  0  0
   -6.4645    1.9442    0.8423 C   0  0  0  0  0  0  0  0  0  0  0  0
   -7.5380    1.2963    1.5835 C   0  0  0  0  0  0  0  0  0  0  0  0
   -7.8507    0.1134    1.3200 O   0  0  0  0  0  0  0  0  0  0  0  0
   -8.1967    1.9847    2.5622 O   0  0  0  0  0  0  0  0  0  0  0  0
   -9.2574    1.4353    3.3414 C   0  0  0  0  0  0  0  0  0  0  0  0
   -5.7864    1.2479   -0.1611 C   0  0  0  0  0  0  0  0  0  0  0  0
   -4.7469    1.8041   -0.9093 C   0  0  0  0  0  0  0  0  0  0  0  0
   -1.8347    0.5190   -1.2464 N   0  0  0  0  0  0  0  0  0  0  0  0
   -0.7263   -0.0836   -0.7627 C   0  0  0  0  0  0  0  0  0  0  0  0
    0.1759   -0.7926   -1.5690 C   0  0  0  0  0  0  0  0  0  0  0  0
    1.3122   -1.3865   -1.0806 C   0  0  0  0  0  0  0  0  0  0  0  0
    1.6068   -1.2963    0.2756 C   0  0  0  0  0  0  0  0  0  0  0  0
    2.7779   -1.9064    0.8198 N   0  0  0  0  0  0  0  0  0  0  0  0
    4.0335   -1.2559    0.7724 C   0  0  0  0  0  0  0  0  0  0  0  0
    4.1023   -0.1188    0.2529 O   0  0  0  0  0  0  0  0  0  0  0  0
    5.2263   -1.9005    1.3199 C   0  0  0  0  0  0  0  0  0  0  0  0
    6.4351   -1.1517    1.2197 N   0  0  0  0  0  0  0  0  0  0  0  0
    6.5278    0.0147    2.0087 C   0  0  0  0  0  0  0  0  0  0  0  0
    7.0555    1.2462    1.3829 C   0  0  0  0  0  0  0  0  0  0  0  0
    7.2733    1.2234   -0.0224 N   0  0  0  0  0  4  0  0  0  0  0  0
    8.1972    2.3093   -0.3642 C   0  0  0  0  0  0  0  0  0  0  0  0
    7.9419   -0.0070   -0.3670 C   0  0  0  0  0  0  0  0  0  0  0  0
    6.9963   -1.1281   -0.0841 C   0  0  0  0  0  0  0  0  0  0  0  0
    2.6703   -3.2321    1.4388 C   0  0  0  0  0  0  0  0  0  0  0  0
    0.7340   -0.6045    1.0846 C   0  0  0  0  0  0  0  0  0  0  0  0
   -0.4124   -0.0030    0.6016 C   0  0  0  0  0  0  0  0  0  0  0  0
   -2.9899   -2.2054   -0.8700 C   0  0  0  0  0  0  0  0  0  0  0  0
   -3.5973   -3.4732   -0.8034 C   0  0  0  0  0  0  0  0  0  0  0  0
   -5.2974   -4.6312   -1.3245 H   0  0  0  0  0  0  0  0  0  0  0  0
   -6.4276   -2.7806   -2.4464 H   0  0  0  0  0  0  0  0  0  0  0  0
   -5.3825   -0.5811   -2.5626 H   0  0  0  0  0  0  0  0  0  0  0  0
   -4.4306    1.0342   -2.8605 H   0  0  0  0  0  0  0  0  0  0  0  0
   -1.3950    3.2815   -3.4049 H   0  0  0  0  0  0  0  0  0  0  0  0
   -4.7292    4.8309    0.5439 H   0  0  0  0  0  0  0  0  0  0  0  0
   -6.5958    3.7970    1.8725 H   0  0  0  0  0  0  0  0  0  0  0  0
   -9.3416    2.0979    4.2473 H   0  0  0  0  0  0  0  0  0  0  0  0
   -9.0785    0.3834    3.6187 H   0  0  0  0  0  0  0  0  0  0  0  0
  -10.2345    1.5806    2.8062 H   0  0  0  0  0  0  0  0  0  0  0  0
   -6.1119    0.2522   -0.3333 H   0  0  0  0  0  0  0  0  0  0  0  0
   -0.0407   -0.8688   -2.6150 H   0  0  0  0  0  0  0  0  0  0  0  0
    2.0129   -1.9313   -1.6870 H   0  0  0  0  0  0  0  0  0  0  0  0
    5.4047   -2.8954    0.8189 H   0  0  0  0  0  0  0  0  0  0  0  0
    5.0734   -2.1781    2.4033 H   0  0  0  0  0  0  0  0  0  0  0  0
    5.4854    0.2536    2.3803 H   0  0  0  0  0  0  0  0  0  0  0  0
    7.0770   -0.2415    2.9651 H   0  0  0  0  0  0  0  0  0  0  0  0
    8.0582    1.4595    1.8602 H   0  0  0  0  0  0  0  0  0  0  0  0
    6.4486    2.1589    1.6356 H   0  0  0  0  0  0  0  0  0  0  0  0
    6.3872    1.2837   -0.5874 H   0  0  0  0  0  0  0  0  0  0  0  0
    8.2743    3.0330    0.4693 H   0  0  0  0  0  0  0  0  0  0  0  0
    9.2212    1.9265   -0.5566 H   0  0  0  0  0  0  0  0  0  0  0  0
    7.8703    2.8599   -1.2618 H   0  0  0  0  0  0  0  0  0  0  0  0
    8.1346    0.0158   -1.4692 H   0  0  0  0  0  0  0  0  0  0  0  0
    8.8799   -0.1323    0.1798 H   0  0  0  0  0  0  0  0  0  0  0  0
    6.1386   -1.0262   -0.8133 H   0  0  0  0  0  0  0  0  0  0  0  0
    7.5130   -2.0775   -0.3563 H   0  0  0  0  0  0  0  0  0  0  0  0
    3.1503   -3.9747    0.7962 H   0  0  0  0  0  0  0  0  0  0  0  0
    1.6220   -3.4234    1.6734 H   0  0  0  0  0  0  0  0  0  0  0  0
    3.2047   -3.1488    2.4246 H   0  0  0  0  0  0  0  0  0  0  0  0
    0.9534   -0.5293    2.1365 H   0  0  0  0  0  0  0  0  0  0  0  0
   -1.0488    0.5214    1.2861 H   0  0  0  0  0  0  0  0  0  0  0  0
   -2.0288   -2.0674   -0.4111 H   0  0  0  0  0  0  0  0  0  0  0  0
   -3.0530   -4.2511   -0.2960 H   0  0  0  0  0  0  0  0  0  0  0  0
  1  2  2  0
  2  3  1  0
  3  4  2  0
  4  5  1  0
  5  6  1  0
  6  7  1  0
  7  8  1  0
  7  9  2  0
  9 10  1  0
 10 11  2  0
 11 12  1  0
 12 13  2  0
 13 14  1  0
 14 15  2  0
 14 16  1  0
 16 17  1  0
 13 18  1  0
 18 19  2  0
  5 20  2  3
 20 21  1  0
 21 22  2  0
 22 23  1  0
 23 24  2  0
 24 25  1  0
 25 26  1  0
 26 27  2  0
 26 28  1  0
 28 29  1  0
 29 30  1  0
 30 31  1  0
 31 32  1  0
 32 33  1  0
 32 34  1  0
 34 35  1  0
 25 36  1  0
 24 37  1  0
 37 38  2  0
  4 39  1  0
 39 40  2  0
 40  1  1  0
 19  6  1  0
 38 21  1  0
 19 10  1  0
 35 29  1  0
  1 41  1  0
  2 42  1  0
  3 43  1  0
  6 44  1  0
  8 45  1  0
 11 46  1  0
 12 47  1  0
 17 48  1  0
 17 49  1  0
 17 50  1  0
 18 51  1  0
 22 52  1  0
 23 53  1  0
 28 54  1  0
 28 55  1  0
 30 56  1  0
 30 57  1  0
 31 58  1  0
 31 59  1  0
 32 60  1  0
 33 61  1  0
 33 62  1  0
 33 63  1  0
 34 64  1  0
 34 65  1  0
 35 66  1  0
 35 67  1  0
 36 68  1  0
 36 69  1  0
 36 70  1  0
 37 71  1  0
 38 72  1  0
 39 73  1  0
 40 74  1  0
M  CHG  1  32   1
M  END
