
     RDKit          3D

 74 78  0  0  0  0  0  0  0  0999 V2000
   -6.3842   -2.6928    2.9269 C   0  0  0  0  0  0  0  0  0  0  0  0
   -6.4680   -2.6587    1.5729 C   0  0  0  0  0  0  0  0  0  0  0  0
   -5.3226   -2.3854    0.7920 C   0  0  0  0  0  0  0  0  0  0  0  0
   -4.1036   -2.1470    1.3396 C   0  0  0  0  0  0  0  0  0  0  0  0
   -2.9271   -1.8574    0.5684 C   0  0  0  0  0  0  0  0  0  0  0  0
   -2.8941   -1.7204   -0.8752 C   0  0  0  0  0  0  0  0  0  0  0  0
   -3.3421   -2.8304   -1.7034 C   0  0  0  0  0  0  0  0  0  0  0  0
   -3.0627   -4.0682   -1.6514 O   0  0  0  0  0  0  0  0  0  0  0  0
   -4.2224   -2.2884   -2.6756 N   0  0  0  0  0  0  0  0  0  0  0  0
   -4.4090   -1.0228   -2.4663 C   0  0  0  0  0  0  0  0  0  0  0  0
   -5.2204   -0.1574   -3.2165 C   0  0  0  0  0  0  0  0  0  0  0  0
   -5.2974    1.1367   -2.8187 C   0  0  0  0  0  0  0  0  0  0  0  0
   -4.6098    1.6097   -1.7163 C   0  0  0  0  0  0  0  0  0  0  0  0
   -4.7394    2.8746   -1.3976 C   0  0  0  0  0  0  0  0  0  0  0  0
   -5.5444    3.7194   -2.1443 O   0  0  0  0  0  0  0  0  0  0  0  0
   -4.0441    3.3436   -0.2867 O   0  0  0  0  0  0  0  0  0  0  0  0
   -4.7359    3.6191    0.8905 C   0  0  0  0  0  0  0  0  0  0  0  0
   -3.8180    0.7502   -0.9933 C   0  0  0  0  0  0  0  0  0  0  0  0
   -3.7070   -0.5834   -1.3641 C   0  0  0  0  0  0  0  0  0  0  0  0
   -1.7889   -1.6896    1.2709 N   0  0  0  0  0  0  0  0  0  0  0  0
   -0.5820   -1.3999    0.5773 C   0  0  0  0  0  0  0  0  0  0  0  0
   -0.2504   -0.0819    0.3337 C   0  0  0  0  0  0  0  0  0  0  0  0
    0.9176    0.2262   -0.3389 C   0  0  0  0  0  0  0  0  0  0  0  0
    1.7726   -0.7629   -0.7792 C   0  0  0  0  0  0  0  0  0  0  0  0
    2.9833   -0.4348   -1.4769 N   0  0  0  0  0  0  0  0  0  0  0  0
    3.2933    0.9304   -1.7113 C   0  0  0  0  0  0  0  0  0  0  0  0
    2.5037    1.6535   -2.5842 O   0  0  0  0  0  0  0  0  0  0  0  0
    4.3278    1.4781   -1.0911 C   0  0  0  0  0  0  0  0  0  0  0  0
    5.1308    0.7267   -0.1978 N   0  0  0  0  0  0  0  0  0  0  0  0
    4.6662    0.2396    1.0812 C   0  0  0  0  0  0  0  0  0  0  0  0
    5.5307    0.8166    2.1674 C   0  0  0  0  0  0  0  0  0  0  0  0
    6.8351    1.1932    1.7159 N   0  0  0  0  0  4  0  0  0  0  0  0
    6.8949    2.5839    1.2944 C   0  0  0  0  0  0  0  0  0  0  0  0
    7.3589    0.3664    0.6601 C   0  0  0  0  0  0  0  0  0  0  0  0
    6.4924    0.4299   -0.5855 C   0  0  0  0  0  0  0  0  0  0  0  0
    3.8805   -1.4547   -1.9391 C   0  0  0  0  0  0  0  0  0  0  0  0
    1.4414   -2.0703   -0.5363 C   0  0  0  0  0  0  0  0  0  0  0  0
    0.2794   -2.3744    0.1328 C   0  0  0  0  0  0  0  0  0  0  0  0
   -4.0563   -2.1910    2.7461 C   0  0  0  0  0  0  0  0  0  0  0  0
   -5.1648   -2.4562    3.5139 C   0  0  0  0  0  0  0  0  0  0  0  0
   -7.2616   -2.9030    3.5441 H   0  0  0  0  0  0  0  0  0  0  0  0
   -7.4149   -2.8416    1.1036 H   0  0  0  0  0  0  0  0  0  0  0  0
   -5.4518   -2.3795   -0.2698 H   0  0  0  0  0  0  0  0  0  0  0  0
   -1.7864   -1.4898   -1.1290 H   0  0  0  0  0  0  0  0  0  0  0  0
   -5.7540   -0.5134   -4.0677 H   0  0  0  0  0  0  0  0  0  0  0  0
   -5.9233    1.8118   -3.3945 H   0  0  0  0  0  0  0  0  0  0  0  0
   -5.9377    4.5722   -1.7422 H   0  0  0  0  0  0  0  0  0  0  0  0
   -4.0483    3.9833    1.6834 H   0  0  0  0  0  0  0  0  0  0  0  0
   -5.5115    4.3870    0.7513 H   0  0  0  0  0  0  0  0  0  0  0  0
   -5.2123    2.6645    1.2274 H   0  0  0  0  0  0  0  0  0  0  0  0
   -3.2731    1.1002   -0.1294 H   0  0  0  0  0  0  0  0  0  0  0  0
   -0.9334    0.7050    0.6857 H   0  0  0  0  0  0  0  0  0  0  0  0
    1.1759    1.2553   -0.5291 H   0  0  0  0  0  0  0  0  0  0  0  0
    2.1751    2.5801   -2.3536 H   0  0  0  0  0  0  0  0  0  0  0  0
    4.5886    2.5243   -1.2525 H   0  0  0  0  0  0  0  0  0  0  0  0
    3.6132    0.5440    1.2475 H   0  0  0  0  0  0  0  0  0  0  0  0
    4.7536   -0.8767    1.1147 H   0  0  0  0  0  0  0  0  0  0  0  0
    4.9928    1.6804    2.6296 H   0  0  0  0  0  0  0  0  0  0  0  0
    5.6243    0.0586    2.9722 H   0  0  0  0  0  0  0  0  0  0  0  0
    7.5158    1.1148    2.5182 H   0  0  0  0  0  0  0  0  0  0  0  0
    7.6955    2.6647    0.5372 H   0  0  0  0  0  0  0  0  0  0  0  0
    5.9340    2.8898    0.8701 H   0  0  0  0  0  0  0  0  0  0  0  0
    7.1878    3.2486    2.1405 H   0  0  0  0  0  0  0  0  0  0  0  0
    7.4805   -0.6742    0.9624 H   0  0  0  0  0  0  0  0  0  0  0  0
    8.3489    0.7923    0.3775 H   0  0  0  0  0  0  0  0  0  0  0  0
    6.8861    1.1893   -1.3069 H   0  0  0  0  0  0  0  0  0  0  0  0
    6.5061   -0.5550   -1.0644 H   0  0  0  0  0  0  0  0  0  0  0  0
    3.3484   -2.2931   -2.4401 H   0  0  0  0  0  0  0  0  0  0  0  0
    4.4089   -1.8719   -1.0432 H   0  0  0  0  0  0  0  0  0  0  0  0
    4.5904   -1.0199   -2.6650 H   0  0  0  0  0  0  0  0  0  0  0  0
    2.1325   -2.8346   -0.8939 H   0  0  0  0  0  0  0  0  0  0  0  0
    0.0278   -3.4187    0.3195 H   0  0  0  0  0  0  0  0  0  0  0  0
   -3.0789   -2.0000    3.1833 H   0  0  0  0  0  0  0  0  0  0  0  0
   -5.0130   -2.4652    4.5911 H   0  0  0  0  0  0  0  0  0  0  0  0
  1  2  2  0
  2  3  1  0
  3  4  2  0
  4  5  1  0
  5  6  1  0
  6  7  1  0
  7  8  2  0
  7  9  1  0
  9 10  2  0
 10 11  1  0
 11 12  2  0
 12 13  1  0
 13 14  2  3
 14 15  1  0
 14 16  1  0
 16 17  1  0
 13 18  1  0
 18 19  2  0
  5 20  2  3
 20 21  1  0
 21 22  2  0
 22 23  1  0
 23 24  2  0
 24 25  1  0
 25 26  1  0
 26 27  1  0
 26 28  2  3
 28 29  1  0
 29 30  1  0
 30 31  1  0
 31 32  1  0
 32 33  1  0
 32 34  1  0
 34 35  1  0
 25 36  1  0
 24 37  1  0
 37 38  2  0
  4 39  1  0
 39 40  2  0
 40  1  1  0
 19  6  1  0
 38 21  1  0
 19 10  1  0
 35 29  1  0
  1 41  1  0
  2 42  1  0
  3 43  1  0
  6 44  1  0
 11 45  1  0
 12 46  1  0
 15 47  1  0
 17 48  1  0
 17 49  1  0
 17 50  1  0
 18 51  1  0
 22 52  1  0
 23 53  1  0
 27 54  1  0
 28 55  1  0
 30 56  1  0
 30 57  1  0
 31 58  1  0
 31 59  1  0
 32 60  1  0
 33 61  1  0
 33 62  1  0
 33 63  1  0
 34 64  1  0
 34 65  1  0
 35 66  1  0
 35 67  1  0
 36 68  1  0
 36 69  1  0
 36 70  1  0
 37 71  1  0
 38 72  1  0
 39 73  1  0
 40 74  1  0
M  CHG  1  32   1
M  END
