
 OpenBabel11172317513D

 74 78  0  0  0  0  0  0  0  0999 V2000
   -4.1417   -6.1336    1.2976 C   0  0  0  0  0  0  0  0  0  0  0  0
   -2.9310   -5.4623    1.2265 C   0  0  0  0  0  0  0  0  0  0  0  0
   -2.8408   -4.1328    0.8812 C   0  0  0  0  0  0  0  0  0  0  0  0
   -3.9832   -3.4387    0.5952 C   0  0  0  0  0  0  0  0  0  0  0  0
   -3.9869   -1.9833    0.2680 C   0  0  0  0  0  0  0  0  0  0  0  0
   -4.4983   -1.6228   -0.8798 C   0  0  0  0  0  0  0  0  0  0  0  0
   -5.0796   -2.4243   -1.9484 C   0  0  0  0  0  0  0  0  0  0  0  0
   -5.1680   -3.8028   -1.9976 O   0  0  0  0  0  0  0  0  0  0  0  0
   -5.5255   -1.6408   -2.9040 N   0  0  0  0  0  0  0  0  0  0  0  0
   -5.2938   -0.2913   -2.5788 C   0  0  0  0  0  0  0  0  0  0  0  0
   -5.5728    0.8984   -3.2340 C   0  0  0  0  0  0  0  0  0  0  0  0
   -5.2381    2.1152   -2.6796 C   0  0  0  0  0  0  0  0  0  0  0  0
   -4.6154    2.2074   -1.4571 C   0  0  0  0  0  0  0  0  0  0  0  0
   -4.2607    3.4963   -0.8708 C   0  0  0  0  0  0  0  0  0  0  0  0
   -4.5571    4.5425   -1.5455 O   0  0  0  0  0  0  0  0  0  0  0  0
   -3.6410    3.6435    0.3372 O   0  0  0  0  0  0  0  0  0  0  0  0
   -3.3530    4.9761    0.7871 C   0  0  0  0  0  0  0  0  0  0  0  0
   -4.3373    1.0059   -0.8037 C   0  0  0  0  0  0  0  0  0  0  0  0
   -4.6592   -0.2252   -1.3332 C   0  0  0  0  0  0  0  0  0  0  0  0
   -3.4205   -1.1496    1.2416 N   0  0  0  0  0  0  0  0  0  0  0  0
   -2.0769   -0.7062    1.3106 C   0  0  0  0  0  0  0  0  0  0  0  0
   -1.5980   -0.0156    2.4035 C   0  0  0  0  0  0  0  0  0  0  0  0
   -0.3127    0.4456    2.4916 C   0  0  0  0  0  0  0  0  0  0  0  0
    0.6028    0.2370    1.4561 C   0  0  0  0  0  0  0  0  0  0  0  0
    1.9230    0.7384    1.5956 N   0  0  0  0  0  0  0  0  0  0  0  0
    2.9691    0.5206    0.7059 C   0  0  0  0  0  0  0  0  0  0  0  0
    2.8724   -0.1590   -0.3274 O   0  0  0  0  0  0  0  0  0  0  0  0
    4.3196    1.1255    0.9698 C   0  0  0  0  0  0  0  0  0  0  0  0
    5.2222    0.7974   -0.0246 N   0  0  0  0  0  0  0  0  0  0  0  0
    5.0967    1.2861   -1.3255 C   0  0  0  0  0  0  0  0  0  0  0  0
    6.4765    1.7047   -1.8417 C   0  0  0  0  0  0  0  0  0  0  0  0
    7.4408    1.4694   -0.7826 N   0  3  2  0  0  0  0  0  0  0  0  0
    8.7490    1.9878   -1.0656 C   0  0  0  0  0  0  0  0  0  0  0  0
    7.4245    0.0435   -0.5189 C   0  0  0  0  0  0  0  0  0  0  0  0
    6.0839   -0.3032    0.1239 C   0  0  0  0  0  0  0  0  0  0  0  0
    2.2147    1.5585    2.7862 C   0  0  0  0  0  0  0  0  0  0  0  0
    0.1378   -0.4518    0.3574 C   0  0  0  0  0  0  0  0  0  0  0  0
   -1.1865   -0.9142    0.2940 C   0  0  0  0  0  0  0  0  0  0  0  0
   -5.2029   -4.1114    0.6671 C   0  0  0  0  0  0  0  0  0  0  0  0
   -5.2976   -5.4395    1.0114 C   0  0  0  0  0  0  0  0  0  0  0  0
   -4.2439   -7.1636    1.5617 H   0  0  0  0  0  0  0  0  0  0  0  0
   -2.0474   -6.0333    1.4572 H   0  0  0  0  0  0  0  0  0  0  0  0
   -1.8639   -3.6329    0.8354 H   0  0  0  0  0  0  0  0  0  0  0  0
   -5.9041   -4.2393   -2.5379 H   0  0  0  0  0  0  0  0  0  0  0  0
   -6.0700    0.8392   -4.2102 H   0  0  0  0  0  0  0  0  0  0  0  0
   -5.4534    3.0475   -3.1879 H   0  0  0  0  0  0  0  0  0  0  0  0
   -3.4786    5.0247    1.8964 H   0  0  0  0  0  0  0  0  0  0  0  0
   -4.0819    5.6969    0.3206 H   0  0  0  0  0  0  0  0  0  0  0  0
   -2.3406    5.2984    0.4685 H   0  0  0  0  0  0  0  0  0  0  0  0
   -3.8599    1.0612    0.1611 H   0  0  0  0  0  0  0  0  0  0  0  0
   -4.0779   -0.8167    2.0081 H   0  0  0  0  0  0  0  0  0  0  0  0
   -2.2907    0.1589    3.2207 H   0  0  0  0  0  0  0  0  0  0  0  0
    0.0405    0.9955    3.3804 H   0  0  0  0  0  0  0  0  0  0  0  0
    4.6918    0.8008    1.9693 H   0  0  0  0  0  0  0  0  0  0  0  0
    4.1585    2.2356    1.0267 H   0  0  0  0  0  0  0  0  0  0  0  0
    4.3959    2.1583   -1.4301 H   0  0  0  0  0  0  0  0  0  0  0  0
    4.7587    0.4669   -2.0210 H   0  0  0  0  0  0  0  0  0  0  0  0
    6.4780    2.7924   -2.0689 H   0  0  0  0  0  0  0  0  0  0  0  0
    6.7661    1.1632   -2.7528 H   0  0  0  0  0  0  0  0  0  0  0  0
    7.0893    1.9745    0.0639 H   0  0  0  0  0  0  0  0  0  0  0  0
    9.3927    1.3068   -1.6469 H   0  0  0  0  0  0  0  0  0  0  0  0
    9.2381    2.2105   -0.0893 H   0  0  0  0  0  0  0  0  0  0  0  0
    8.6232    2.9847   -1.5576 H   0  0  0  0  0  0  0  0  0  0  0  0
    7.5350   -0.4513   -1.4972 H   0  0  0  0  0  0  0  0  0  0  0  0
    8.2173   -0.2663    0.1563 H   0  0  0  0  0  0  0  0  0  0  0  0
    6.2461   -0.6282    1.1732 H   0  0  0  0  0  0  0  0  0  0  0  0
    5.6794   -1.1783   -0.4528 H   0  0  0  0  0  0  0  0  0  0  0  0
    3.2302    1.9523    2.7822 H   0  0  0  0  0  0  0  0  0  0  0  0
    1.5227    2.4356    2.8071 H   0  0  0  0  0  0  0  0  0  0  0  0
    2.0363    0.9545    3.7186 H   0  0  0  0  0  0  0  0  0  0  0  0
    0.7751   -0.6509   -0.4823 H   0  0  0  0  0  0  0  0  0  0  0  0
   -1.5176   -1.4554   -0.5928 H   0  0  0  0  0  0  0  0  0  0  0  0
   -6.1137   -3.5214    0.4546 H   0  0  0  0  0  0  0  0  0  0  0  0
   -6.2858   -5.9127    1.0497 H   0  0  0  0  0  0  0  0  0  0  0  0
  1  2  2  0  0  0  0
  1 41  1  0  0  0  0
  2  3  1  0  0  0  0
  2 42  1  0  0  0  0
  3  4  2  0  0  0  0
  3 43  1  0  0  0  0
  4  5  1  0  0  0  0
  4 39  1  0  0  0  0
  5  6  2  3  0  0  0
  5 20  1  0  0  0  0
  6  7  1  0  0  0  0
  7  8  1  0  0  0  0
  7  9  2  0  0  0  0
  8 44  1  0  0  0  0
  9 10  1  0  0  0  0
 10 11  2  0  0  0  0
 11 12  1  0  0  0  0
 11 45  1  0  0  0  0
 12 13  2  0  0  0  0
 12 46  1  0  0  0  0
 13 14  1  0  0  0  0
 13 18  1  0  0  0  0
 14 15  2  0  0  0  0
 14 16  1  0  0  0  0
 16 17  1  0  0  0  0
 17 47  1  0  0  0  0
 17 48  1  0  0  0  0
 17 49  1  0  0  0  0
 18 19  2  0  0  0  0
 18 50  1  0  0  0  0
 19  6  1  0  0  0  0
 19 10  1  0  0  0  0
 20 21  1  0  0  0  0
 20 51  1  0  0  0  0
 21 22  2  0  0  0  0
 22 23  1  0  0  0  0
 22 52  1  0  0  0  0
 23 24  2  0  0  0  0
 23 53  1  0  0  0  0
 24 25  1  0  0  0  0
 24 37  1  0  0  0  0
 25 26  1  0  0  0  0
 25 36  1  0  0  0  0
 26 27  2  0  0  0  0
 26 28  1  0  0  0  0
 28 29  1  0  0  0  0
 28 54  1  0  0  0  0
 28 55  1  0  0  0  0
 29 30  1  0  0  0  0
 30 31  1  0  0  0  0
 30 56  1  0  0  0  0
 30 57  1  0  0  0  0
 31 32  1  0  0  0  0
 31 58  1  0  0  0  0
 31 59  1  0  0  0  0
 32 33  1  0  0  0  0
 32 34  1  0  0  0  0
 32 60  1  1  0  0  0
 33 61  1  0  0  0  0
 33 62  1  0  0  0  0
 33 63  1  0  0  0  0
 34 35  1  0  0  0  0
 34 64  1  0  0  0  0
 34 65  1  0  0  0  0
 35 29  1  0  0  0  0
 35 66  1  0  0  0  0
 35 67  1  0  0  0  0
 36 68  1  0  0  0  0
 36 69  1  0  0  0  0
 36 70  1  0  0  0  0
 37 38  2  0  0  0  0
 37 71  1  0  0  0  0
 38 21  1  0  0  0  0
 38 72  1  0  0  0  0
 39 40  2  0  0  0  0
 39 73  1  0  0  0  0
 40  1  1  0  0  0  0
 40 74  1  0  0  0  0
M  CHG  1  32   1
M  END
$$$$
