
 OpenBabel11172317513D

 74 78  0  0  0  0  0  0  0  0999 V2000
    2.6368   -5.8751   -1.2628 C   0  0  0  0  0  0  0  0  0  0  0  0
    2.7924   -5.5210    0.0714 C   0  0  0  0  0  0  0  0  0  0  0  0
    3.1579   -4.1963    0.3340 C   0  0  0  0  0  0  0  0  0  0  0  0
    3.3466   -3.3177   -0.6909 C   0  0  0  0  0  0  0  0  0  0  0  0
    3.7707   -1.9394   -0.4281 C   0  0  0  0  0  0  0  0  0  0  0  0
    4.8896   -1.7013    0.2275 C   0  0  0  0  0  0  0  0  0  0  0  0
    5.8632   -2.6370    0.7758 C   0  0  0  0  0  0  0  0  0  0  0  0
    5.8076   -3.8836    0.7020 O   0  0  0  0  0  0  0  0  0  0  0  0
    6.8915   -1.8942    1.4078 N   0  0  0  0  0  0  0  0  0  0  0  0
    6.5867   -0.5176    1.2685 C   0  0  0  0  0  0  0  0  0  0  0  0
    7.2649    0.5998    1.7041 C   0  0  0  0  0  0  0  0  0  0  0  0
    6.7861    1.8728    1.4608 C   0  0  0  0  0  0  0  0  0  0  0  0
    5.6166    2.0456    0.7746 C   0  0  0  0  0  0  0  0  0  0  0  0
    5.0924    3.3781    0.5145 C   0  0  0  0  0  0  0  0  0  0  0  0
    4.0153    3.5037   -0.1259 O   0  0  0  0  0  0  0  0  0  0  0  0
    5.7107    4.5287    0.9329 O   0  0  0  0  0  0  0  0  0  0  0  0
    5.1731    5.8249    0.6651 C   0  0  0  0  0  0  0  0  0  0  0  0
    4.9260    0.9235    0.3311 C   0  0  0  0  0  0  0  0  0  0  0  0
    5.3876   -0.3496    0.5638 C   0  0  0  0  0  0  0  0  0  0  0  0
    2.9395   -0.9271   -0.9292 N   0  0  0  0  0  0  0  0  0  0  0  0
    1.6726   -0.5436   -0.4069 C   0  0  0  0  0  0  0  0  0  0  0  0
    0.9683    0.5101   -1.0085 C   0  0  0  0  0  0  0  0  0  0  0  0
   -0.2669    0.8948   -0.5370 C   0  0  0  0  0  0  0  0  0  0  0  0
   -0.8808    0.2648    0.5534 C   0  0  0  0  0  0  0  0  0  0  0  0
   -2.1609    0.7086    0.9751 N   0  0  0  0  0  0  0  0  0  0  0  0
   -3.2130    0.8059    0.0319 C   0  0  0  0  0  0  0  0  0  0  0  0
   -3.0093    0.5099   -1.1866 O   0  0  0  0  0  0  0  0  0  0  0  0
   -4.5751    1.2459    0.4030 C   0  0  0  0  0  0  0  0  0  0  0  0
   -5.4423    1.2563   -0.7340 N   0  0  0  0  0  0  0  0  0  0  0  0
   -5.7730    0.0059   -1.2947 C   0  0  0  0  0  0  0  0  0  0  0  0
   -7.0900   -0.0374   -2.0169 C   0  0  0  0  0  0  0  0  0  0  0  0
   -8.0888    0.5554   -1.1677 N   0  3  1  0  0  0  0  0  0  0  0  0
   -8.1340   -0.1066    0.1371 C   0  0  0  0  0  0  0  0  0  0  0  0
   -7.8223    1.9474   -0.9008 C   0  0  0  0  0  0  0  0  0  0  0  0
   -6.3883    2.3036   -0.7626 C   0  0  0  0  0  0  0  0  0  0  0  0
   -2.4024    1.0603    2.3558 C   0  0  0  0  0  0  0  0  0  0  0  0
   -0.1793   -0.7653    1.1333 C   0  0  0  0  0  0  0  0  0  0  0  0
    1.0656   -1.1528    0.6587 C   0  0  0  0  0  0  0  0  0  0  0  0
    3.1870   -3.6861   -2.0100 C   0  0  0  0  0  0  0  0  0  0  0  0
    2.8268   -4.9840   -2.2974 C   0  0  0  0  0  0  0  0  0  0  0  0
    2.3556   -6.8898   -1.4683 H   0  0  0  0  0  0  0  0  0  0  0  0
    2.6516   -6.1896    0.8965 H   0  0  0  0  0  0  0  0  0  0  0  0
    3.2624   -3.8865    1.3629 H   0  0  0  0  0  0  0  0  0  0  0  0
    7.7377   -2.2956    1.8976 H   0  0  0  0  0  0  0  0  0  0  0  0
    8.2014    0.4483    2.2530 H   0  0  0  0  0  0  0  0  0  0  0  0
    7.3368    2.7508    1.8132 H   0  0  0  0  0  0  0  0  0  0  0  0
    4.0620    5.7924    0.7378 H   0  0  0  0  0  0  0  0  0  0  0  0
    5.5913    6.4878    1.4432 H   0  0  0  0  0  0  0  0  0  0  0  0
    5.4074    6.1959   -0.3373 H   0  0  0  0  0  0  0  0  0  0  0  0
    4.0032    1.0823   -0.2042 H   0  0  0  0  0  0  0  0  0  0  0  0
    3.3043   -0.4262   -1.7941 H   0  0  0  0  0  0  0  0  0  0  0  0
    1.4403    0.9966   -1.8510 H   0  0  0  0  0  0  0  0  0  0  0  0
   -0.8219    1.7143   -0.9974 H   0  0  0  0  0  0  0  0  0  0  0  0
   -4.9929    0.7345    1.2805 H   0  0  0  0  0  0  0  0  0  0  0  0
   -4.4874    2.3260    0.7313 H   0  0  0  0  0  0  0  0  0  0  0  0
   -5.0032   -0.2639   -2.0813 H   0  0  0  0  0  0  0  0  0  0  0  0
   -5.7295   -0.8492   -0.5829 H   0  0  0  0  0  0  0  0  0  0  0  0
   -7.3696   -1.0890   -2.1868 H   0  0  0  0  0  0  0  0  0  0  0  0
   -7.0523    0.5486   -2.9652 H   0  0  0  0  0  0  0  0  0  0  0  0
   -9.0203    0.3995   -1.6077 H   0  0  0  0  0  0  0  0  0  0  0  0
   -7.7675   -1.1520    0.0812 H   0  0  0  0  0  0  0  0  0  0  0  0
   -9.1681   -0.1507    0.5347 H   0  0  0  0  0  0  0  0  0  0  0  0
   -7.4807    0.4259    0.8826 H   0  0  0  0  0  0  0  0  0  0  0  0
   -8.2151    2.4921   -1.8107 H   0  0  0  0  0  0  0  0  0  0  0  0
   -8.4593    2.3184   -0.0583 H   0  0  0  0  0  0  0  0  0  0  0  0
   -6.2927    2.8497    0.2281 H   0  0  0  0  0  0  0  0  0  0  0  0
   -6.0640    3.0827   -1.5024 H   0  0  0  0  0  0  0  0  0  0  0  0
   -2.1161    0.1862    2.9797 H   0  0  0  0  0  0  0  0  0  0  0  0
   -3.4697    1.2470    2.5664 H   0  0  0  0  0  0  0  0  0  0  0  0
   -1.7449    1.8909    2.6990 H   0  0  0  0  0  0  0  0  0  0  0  0
   -0.6364   -1.2698    1.9826 H   0  0  0  0  0  0  0  0  0  0  0  0
    1.5495   -1.9583    1.1617 H   0  0  0  0  0  0  0  0  0  0  0  0
    3.3377   -2.9848   -2.8040 H   0  0  0  0  0  0  0  0  0  0  0  0
    2.7012   -5.2747   -3.3328 H   0  0  0  0  0  0  0  0  0  0  0  0
  1  2  2  0  0  0  0
  1 41  1  0  0  0  0
  2  3  1  0  0  0  0
  2 42  1  0  0  0  0
  3  4  2  0  0  0  0
  3 43  1  0  0  0  0
  4  5  1  0  0  0  0
  4 39  1  0  0  0  0
  5  6  2  3  0  0  0
  5 20  1  0  0  0  0
  6  7  1  0  0  0  0
  7  8  2  0  0  0  0
  7  9  1  0  0  0  0
  9 10  1  0  0  0  0
  9 44  1  0  0  0  0
 10 11  2  0  0  0  0
 11 12  1  0  0  0  0
 11 45  1  0  0  0  0
 12 13  2  0  0  0  0
 12 46  1  0  0  0  0
 13 14  1  0  0  0  0
 13 18  1  0  0  0  0
 14 15  2  0  0  0  0
 14 16  1  0  0  0  0
 16 17  1  0  0  0  0
 17 47  1  0  0  0  0
 17 48  1  0  0  0  0
 17 49  1  0  0  0  0
 18 19  2  0  0  0  0
 18 50  1  0  0  0  0
 19  6  1  0  0  0  0
 19 10  1  0  0  0  0
 20 21  1  0  0  0  0
 20 51  1  0  0  0  0
 21 22  2  0  0  0  0
 22 23  1  0  0  0  0
 22 52  1  0  0  0  0
 23 24  2  0  0  0  0
 23 53  1  0  0  0  0
 24 25  1  0  0  0  0
 24 37  1  0  0  0  0
 25 26  1  0  0  0  0
 25 36  1  0  0  0  0
 26 27  2  0  0  0  0
 26 28  1  0  0  0  0
 28 29  1  0  0  0  0
 28 54  1  0  0  0  0
 28 55  1  0  0  0  0
 29 30  1  0  0  0  0
 30 31  1  0  0  0  0
 30 56  1  0  0  0  0
 30 57  1  0  0  0  0
 31 32  1  0  0  0  0
 31 58  1  0  0  0  0
 31 59  1  0  0  0  0
 32 33  1  0  0  0  0
 32 34  1  0  0  0  0
 32 60  1  6  0  0  0
 33 61  1  0  0  0  0
 33 62  1  0  0  0  0
 33 63  1  0  0  0  0
 34 35  1  0  0  0  0
 34 64  1  0  0  0  0
 34 65  1  0  0  0  0
 35 29  1  0  0  0  0
 35 66  1  0  0  0  0
 35 67  1  0  0  0  0
 36 68  1  0  0  0  0
 36 69  1  0  0  0  0
 36 70  1  0  0  0  0
 37 38  2  0  0  0  0
 37 71  1  0  0  0  0
 38 21  1  0  0  0  0
 38 72  1  0  0  0  0
 39 40  2  0  0  0  0
 39 73  1  0  0  0  0
 40  1  1  0  0  0  0
 40 74  1  0  0  0  0
M  CHG  1  32   1
M  END
$$$$
