9
0 1 C2H6O
O                     0.893001817357    -0.419957253441    -0.600670073085
C                     0.223045435060     0.406005244548     0.350452618072
C                    -1.243994783159     0.039628303256     0.302726093727
H                     0.354396903661     1.470478049790     0.110105313816
H                     0.620554796313     0.244490504211     1.362420621086
H                    -1.639438991752     0.212348840880    -0.700343710083
H                    -1.816256990605     0.640064461710     1.015588068064
H                    -1.372883010507    -1.016514635512     0.548105047626
H                     1.837309398838    -0.191923163115    -0.580092406615
