11

N -1.31412026 0.23406600 -0.03429376
C -0.51276814 -0.87631158 0.09754279
C 0.95214675 -0.71478915 0.51108130
N 1.17485535 0.46685736 1.37798898
O -0.95587835 -2.02447289 -0.01942404
H 1.53828875 -0.68171113 -0.42302284
H 1.22108651 -1.65492056 1.01860630
H -2.24791480 0.08154461 -0.38308378
H -0.92253893 1.14600132 -0.20442201
H 2.15925942 0.72394328 1.33216424
H 0.66298570 1.28149573 1.05724380
