11

N -1.39195901 -0.88346725 -0.01613483
C -0.55025043 0.20215317 0.06403180
C 0.62622352 0.07827525 1.02855650
N 1.87635604 0.22428585 0.25003430
O -0.66566198 1.19358591 -0.66207315
H 0.56805122 -0.88498798 1.56392817
H 0.50600523 0.86590666 1.78936592
H -2.21486026 -0.78494483 -0.59068085
H -1.45130709 -1.54427071 0.74301709
H 2.64878405 -0.17851716 0.77584572
H 1.80401869 -0.30631792 -0.61550867
