11

N -1.66568001 -0.37817078 0.32932767
C -0.38724888 -0.41803305 -0.17503828
C 0.74995470 -0.49629497 0.83690475
N 1.60074151 0.69663564 0.63885672
O -0.13843245 -0.48334338 -1.38439862
H 1.28096986 -1.44449825 0.65344254
H 0.34497538 -0.56534568 1.86017366
H -2.41954961 -0.24878258 -0.32770436
H -1.83124064 -0.05836291 1.27123752
H 2.53583820 0.49832798 0.98730775
H 1.68507393 0.87956999 -0.35973134
