24
0 1 C9H12N2O
C                    -0.807291372478    -0.243014807611    -0.072932515886
N                     0.397234512915    -0.479553907817     0.651300850714
C                     1.551028150782     0.189421814053     0.296179813912
C                     2.778062532564    -0.020131763282     1.191581504981
C                     0.301290391671    -1.235518918895     1.896802065013
O                     1.625233126278     0.912268066124    -0.699095732868
C                    -1.982261908503     0.065362267466     0.619991372264
C                    -3.197788394594     0.149651396687    -1.467781487284
C                    -3.174193840637     0.253570599268    -0.078053847490
C                    -2.020863594776    -0.149659656202    -2.155603456181
C                    -0.828248332822    -0.354967060948    -1.467019955579
H                     1.208887687927    -1.817264220512     2.058160059678
H                    -0.533834608297    -1.930546636748     1.806449811386
H                     0.134370780383    -0.595517997041     2.771167237924
N                     3.925167719790     0.782948486685     0.802464283753
H                     3.067162059045    -1.077899106485     1.165998427857
H                     2.528684344794     0.204739957713     2.234230628994
H                    -1.964792809973     0.174679739024     1.701045104366
H                    -4.083129427113     0.492403740497     0.468215186302
H                    -2.031080744474    -0.234981745053    -3.239161137155
H                     0.085045909489    -0.592062914166    -1.999800600745
H                     4.082917134488     0.633950528699    -0.193920126647
H                    -4.125963503652     0.302115758825    -2.011826173927
H                     3.656700733279     1.764647595488     0.862276587010
