
     RDKit          3D

 14 14  0  0  0  0  0  0  0  0999 V2000
    2.9709   -1.0489   -0.2323 O   0  0  0  0  0  0  0  0  0  0  0  0
    2.3184    0.0102   -0.0928 C   0  0  0  0  0  0  0  0  0  0  0  0
    2.9972    1.2168    0.0086 O   0  0  0  0  0  1  0  0  0  0  0  0
    0.8618   -0.0218   -0.0372 C   0  0  0  0  0  0  0  0  0  0  0  0
    0.1489    1.1525    0.1170 C   0  0  0  0  0  0  0  0  0  0  0  0
   -1.2253    1.1880    0.1765 C   0  0  0  0  0  0  0  0  0  0  0  0
   -1.9126    0.0043    0.0779 C   0  0  0  0  0  0  0  0  0  0  0  0
   -1.2159   -1.1890   -0.0777 C   0  0  0  0  0  0  0  0  0  0  0  0
    0.1742   -1.2026   -0.1355 C   0  0  0  0  0  0  0  0  0  0  0  0
    0.6996    2.0753    0.1933 H   0  0  0  0  0  0  0  0  0  0  0  0
   -1.7915    2.0977    0.2965 H   0  0  0  0  0  0  0  0  0  0  0  0
   -2.9916   -0.0593    0.1148 H   0  0  0  0  0  0  0  0  0  0  0  0
   -1.7628   -2.1046   -0.1534 H   0  0  0  0  0  0  0  0  0  0  0  0
    0.7287   -2.1184   -0.2557 H   0  0  0  0  0  0  0  0  0  0  0  0
  1  2  2  0
  2  3  1  0
  2  4  1  0
  4  5  2  0
  5  6  1  0
  6  7  2  0
  7  8  1  0
  8  9  2  0
  9  4  1  0
  5 10  1  0
  6 11  1  0
  7 12  1  0
  8 13  1  0
  9 14  1  0
M  CHG  1   3  -1
M  END
