27
0 1 C10H14N2O
C                    -1.147451812338    -0.365906947649    -0.091464227527
N                     0.074048187662    -0.541006947649     0.664335772473
C                     1.314248187662    -0.065806947649     0.189535772473
C                     2.523348187662    -0.227106947649     1.151535772473
C                    -0.057551812338    -1.145806947649     1.992935772473
O                     1.484948187662     0.489493052351    -0.900664227527
C                    -2.397251812338    -0.355306947649     0.549635772473
C                    -3.583951812338    -0.008406947649    -1.550864227527
C                    -3.592651812338    -0.191206947649    -0.167864227527
C                    -2.347951812338    -0.061806947649    -2.200164227527
C                    -1.152551812338    -0.227706947649    -1.483864227527
H                     0.868248187662    -1.628906947649     2.311035772473
H                    -0.820851812338    -1.930606947649     1.988035772473
H                    -0.310951812338    -0.363406947649     2.714835772473
N                     3.715648187662     0.486893052351     0.645435772473
H                     2.744848187662    -1.300006947649     1.194835772473
H                     2.267448187662     0.139993052351     2.151135772473
H                    -2.487951812338    -0.446706947649     1.627535772473
H                    -4.529251812338    -0.196606947649     0.381335772473
H                    -2.296951812338     0.019593052351    -3.283264227527
H                    -0.239951812338    -0.284806947649    -2.068464227527
C                     3.596648187662     1.949293052351     0.710335772473
H                     3.679248187662     2.282893052351     1.753635772473
H                     2.624248187662     2.308393052351     0.356935772473
H                    -4.457251812338     0.159893052351    -2.074464227527
H                     3.863648187662     0.218193052351    -0.327364227527
H                     4.376548187662     2.337393052351     0.089035772473
