15

C 0.72296873 -0.64589946 -0.70722269
C -0.16363890 -0.00487699 0.19023860
C -1.45957641 -0.66114466 0.55355811
O -2.23718186 -0.89192912 -0.54106699
C 0.15602160 1.24665279 0.76500562
O -1.81175500 -0.94831825 1.68653476
C 1.93337999 -0.01883250 -1.03418410
C 2.26088646 1.23523651 -0.47140844
H 0.45532858 -1.61261293 -1.13717234
C 1.36934662 1.86227166 0.42794989
H -0.53998870 1.71460046 1.46335667
H 1.62493505 2.82907658 0.86489476
H -3.04643756 -1.31719288 -0.18898584
H 2.62367321 -0.50240803 -1.72751676
H 3.20377119 1.71950981 -0.73043727
