15

C 0.87350137 -0.76776083 -0.17309587
C -0.24085139 0.08565865 0.02654038
C -1.62472305 -0.48295826 0.19508943
O -1.61879589 -1.71152352 0.78918124
C -0.08892638 1.49267026 -0.00596130
O -2.66125288 0.13242370 -0.00217779
C 2.14204183 -0.20343740 -0.36866678
C 2.30494027 1.19971111 -0.37873688
H 0.73866225 -1.85057764 -0.16877173
C 1.18542266 2.04202508 -0.19981293
H -0.96550402 2.13031259 0.12037636
H 1.30908454 3.12609845 -0.21555756
H -2.56295312 -1.96819822 0.84132716
H 3.00640344 -0.85364168 -0.51456041
H 3.29468437 1.63333272 -0.53163632
