15

C 0.91917882 -0.77920076 -0.56731102
C -0.15945840 -0.08017218 0.02791374
C -1.45592282 -0.82328441 0.24520175
O -2.43547376 -0.05268238 0.80437793
C -0.01638555 1.28000615 0.40517711
O -1.64384436 -1.99535335 -0.04428267
C 2.13516012 -0.11696797 -0.78263733
C 2.28510933 1.23655599 -0.40953882
H 0.78869735 -1.82507040 -0.85026501
C 1.20661131 1.92903185 0.18347106
H -0.85094262 1.81258443 0.86294391
H 1.32334205 2.97530270 0.47162477
H -3.20689193 -0.65117140 0.88727026
H 2.96822487 -0.65268730 -1.24093414
H 3.23433158 1.74724104 -0.57947154
