
     RDKit          3D

 26 26  0  0  0  0  0  0  0  0999 V2000
    1.7462   -1.0508    0.1825 C   0  0  0  0  0  0  0  0  0  0  0  0
    2.9677   -1.2259    0.9383 N   0  0  0  0  0  0  0  0  0  0  0  0
    4.2079   -0.7507    0.4635 C   0  0  0  0  0  0  0  0  0  0  0  0
    5.4170   -0.9120    1.4255 C   0  0  0  0  0  0  0  0  0  0  0  0
    2.8361   -1.8307    2.2669 C   0  0  0  0  0  0  0  0  0  0  0  0
    4.3786   -0.1954   -0.6267 O   0  0  0  0  0  0  0  0  0  0  0  0
    0.4964   -1.0402    0.8236 C   0  0  0  0  0  0  0  0  0  0  0  0
   -0.6903   -0.6933   -1.2769 C   0  0  0  0  0  0  0  0  0  0  0  0
   -0.6990   -0.8761    0.1061 C   0  0  0  0  0  0  0  0  0  0  0  0
    0.5457   -0.7467   -1.9262 C   0  0  0  0  0  0  0  0  0  0  0  0
    1.7411   -0.9126   -1.2099 C   0  0  0  0  0  0  0  0  0  0  0  0
    3.7619   -2.3138    2.5850 H   0  0  0  0  0  0  0  0  0  0  0  0
    2.0728   -2.6155    2.2620 H   0  0  0  0  0  0  0  0  0  0  0  0
    2.5827   -1.0483    2.9888 H   0  0  0  0  0  0  0  0  0  0  0  0
    6.6093   -0.1980    0.9194 N   0  0  0  0  0  0  0  0  0  0  0  0
    5.6385   -1.9849    1.4688 H   0  0  0  0  0  0  0  0  0  0  0  0
    5.1611   -0.5449    2.4251 H   0  0  0  0  0  0  0  0  0  0  0  0
    0.4057   -1.1316    1.9015 H   0  0  0  0  0  0  0  0  0  0  0  0
   -1.6356   -0.8815    0.6553 H   0  0  0  0  0  0  0  0  0  0  0  0
    0.5967   -0.6653   -3.0093 H   0  0  0  0  0  0  0  0  0  0  0  0
    2.6537   -0.9697   -1.7945 H   0  0  0  0  0  0  0  0  0  0  0  0
   -1.8695   -0.6048   -2.0560 N   0  0  0  0  0  0  0  0  0  0  0  0
   -1.6813   -0.1001   -2.9211 H   0  0  0  0  0  0  0  0  0  0  0  0
    6.8430   -0.5437   -0.0113 H   0  0  0  0  0  0  0  0  0  0  0  0
    7.3951   -0.3595    1.5493 H   0  0  0  0  0  0  0  0  0  0  0  0
   -2.7441   -0.9768   -1.7992 H   0  0  0  0  0  0  0  0  0  0  0  0
  2  1  1  0
  2  3  1  0
  2  5  1  0
  3  4  1  0
  3  6  2  0
  4 16  1  0
  4 17  1  0
  5 12  1  0
  5 13  1  0
  5 14  1  0
  7  1  4  0
  7 18  1  0
  8  9  4  0
  8 10  4  0
  9  7  4  0
  9 19  1  0
 10 11  4  0
 10 20  1  0
 11  1  4  0
 11 21  1  0
 15  4  1  0
 15 24  1  0
 15 25  1  0
 22  8  1  0
 22 23  1  0
 22 26  1  0
M  END
