
     RDKit          3D

 11 10  0  0  0  0  0  0  0  0999 V2000
    2.9677   -1.2259    0.9383 N   0  0  0  0  0  0  0  0  0  0  0  0
    4.2079   -0.7507    0.4635 C   0  0  0  0  0  0  0  0  0  0  0  0
    5.4170   -0.9120    1.4255 C   0  0  0  0  0  0  0  0  0  0  0  0
    6.6093   -0.1980    0.9194 N   0  0  0  0  0  0  0  0  0  0  0  0
    4.3786   -0.1954   -0.6267 O   0  0  0  0  0  0  0  0  0  0  0  0
    5.6385   -1.9849    1.4688 H   0  0  0  0  0  0  0  0  0  0  0  0
    5.1611   -0.5449    2.4251 H   0  0  0  0  0  0  0  0  0  0  0  0
    2.1267   -1.1486    0.3487 H   0  0  0  0  0  0  0  0  0  0  0  0
    2.9031   -1.6502    1.8746 H   0  0  0  0  0  0  0  0  0  0  0  0
    7.1712    0.1385    1.7144 H   0  0  0  0  0  0  0  0  0  0  0  0
    7.1756   -0.8391    0.3457 H   0  0  0  0  0  0  0  0  0  0  0  0
  1  2  1  0
  2  3  1  0
  2  5  2  0
  3  6  1  0
  3  7  1  0
  4  3  1  0
  1  8  1  0
  1  9  1  0
  4 10  1  0
  4 11  1  0
M  END
