24

C -0.87945611 -0.09581182 0.06326774
N 0.32008445 -0.21462599 0.89200865
C 1.50322709 0.46017718 0.53405849
C 2.86994305 -0.06426764 1.06543851
C 0.25826300 -1.26021242 1.94398737
O 1.56179683 1.18683015 -0.46293908
C -2.11138681 0.28512666 0.65247644
C -3.21871287 0.09948858 -1.50809313
C -3.26643200 0.37605999 -0.13618471
C -2.00435292 -0.27544225 -2.09608132
C -0.83650257 -0.36671374 -1.32744699
H 1.23560832 -1.69059923 2.15290425
H -0.38519444 -2.08020229 1.62203677
H -0.14051261 -0.83386854 2.86459938
N 4.02180611 0.76869375 0.70525399
H 3.04748547 -1.07503618 0.66547751
H 2.84922462 -0.15441764 2.16266198
H -2.16963212 0.50976608 1.71939237
H -4.20958313 0.67060971 0.32802150
H -1.95816949 -0.48921995 -3.16547189
H 0.10376491 -0.64887424 -1.80389773
H 3.96981666 0.92750462 -0.30307718
H -4.12211027 0.17579870 -2.11629431
H 3.87101684 1.69623651 1.10509537
