24

C -0.74213086 -0.25749008 -0.00256062
N 0.48047965 -0.64769041 0.70235814
C 1.75862268 -0.23190997 0.26424342
C 2.46916329 0.62340711 1.36505161
C 0.36250898 -1.86563638 1.53460125
O 1.81492355 0.30823113 -0.84950377
C -1.81855531 0.29916078 0.73159880
C -3.16306314 0.41110368 -1.29563984
C -3.01517206 0.62760851 0.08006818
C -2.10502413 -0.14515737 -2.02519700
C -0.89905973 -0.47710367 -1.39425724
H 1.31569317 -2.39301922 1.58865652
H -0.37761379 -2.54694863 1.11263170
H 0.05586946 -1.59208111 2.54425831
N 3.76543395 1.17320098 0.95653345
H 2.61405925 0.02760093 2.28011807
H 1.81645058 1.46720483 1.64111433
H -1.72337795 0.47346093 1.80544890
H -3.83730871 1.05752278 0.65534588
H -2.21185442 -0.31717861 -3.09770370
H -0.08334592 -0.90755812 -1.97639244
H 4.33612650 0.40281747 0.60527831
H -4.09809631 0.67098785 -1.79609091
H 3.59526330 1.74646661 0.12723564
