24

C -0.71235161 -0.34843677 0.04797895
N 0.48304921 -0.84260230 0.70318533
C 1.73521893 -0.34967768 0.31891275
C 2.19055828 0.88802759 1.14393171
C 0.35598129 -2.08513870 1.49516273
O 2.63091785 -1.15303677 0.03213957
C -1.77902132 0.17465899 0.81764827
C -3.03663624 0.62842783 -1.21741974
C -2.92955439 0.65751960 0.17916935
C -1.98171438 0.11453038 -1.98249595
C -0.82165058 -0.37087443 -1.36392826
H 1.29711627 -2.63638443 1.46778298
H -0.42210925 -2.72842145 1.08280206
H 0.11937404 -1.84496387 2.53160515
N 3.45618428 1.47231179 0.69283139
H 2.30913867 0.59286678 2.19815935
H 1.41503801 1.67071867 1.12521687
H -1.70976567 0.20800206 1.90674299
H -3.74696284 1.05947096 0.78074305
H -2.05877472 0.08816395 -3.07098400
H -0.00915639 -0.77200051 -1.97356564
H 4.12670532 0.70307244 0.62390256
H -3.93660986 1.00476773 -1.70770020
H 3.33501709 1.77599915 -0.27462825
