
     RDKit          3D

 24 25  0  0  0  0  0  0  0  0999 V2000
   -1.8695   -0.6048   -2.0560 N   0  0  0  0  0  0  0  0  0  0  0  0
   -3.1320   -0.3089   -1.5560 C   0  0  0  0  0  0  0  0  0  0  0  0
   -4.0645   -1.4409   -1.7617 C   0  0  0  0  0  0  0  0  0  0  0  0
   -4.8914   -1.4714   -2.8949 C   0  0  0  0  0  0  0  0  0  0  0  0
   -3.5693    0.8496   -1.0094 C   0  0  0  0  0  0  0  0  0  0  0  0
   -4.1183   -2.5003   -0.8459 C   0  0  0  0  0  0  0  0  0  0  0  0
   -1.6813   -0.1001   -2.9211 H   0  0  0  0  0  0  0  0  0  0  0  0
   -4.8891    1.2114   -0.4369 C   0  0  0  0  0  0  0  0  0  0  0  0
   -3.5225    3.0485   -0.3040 N   0  0  0  0  0  0  0  0  0  0  0  0
   -2.7104    2.0976   -0.8973 C   0  0  0  0  0  0  0  0  0  0  0  0
   -4.7872    2.5483   -0.0370 C   0  0  0  0  0  0  0  0  0  0  0  0
   -5.0046   -3.5602   -1.0469 C   0  0  0  0  0  0  0  0  0  0  0  0
   -5.7765   -2.5326   -3.0926 C   0  0  0  0  0  0  0  0  0  0  0  0
   -5.8350   -3.5733   -2.1668 C   0  0  0  0  0  0  0  0  0  0  0  0
   -3.4715   -2.5060    0.0266 H   0  0  0  0  0  0  0  0  0  0  0  0
   -4.8531   -0.6675   -3.6257 H   0  0  0  0  0  0  0  0  0  0  0  0
   -3.2052    3.9879   -0.1202 H   0  0  0  0  0  0  0  0  0  0  0  0
   -1.5657    2.2935   -1.2575 O   0  0  0  0  0  0  0  0  0  0  0  0
   -5.0480   -4.3762   -0.3303 H   0  0  0  0  0  0  0  0  0  0  0  0
   -6.4213   -2.5480   -3.9676 H   0  0  0  0  0  0  0  0  0  0  0  0
   -6.5276   -4.3975   -2.3196 H   0  0  0  0  0  0  0  0  0  0  0  0
   -5.7160    0.6000   -0.3509 H   0  0  0  0  0  0  0  0  0  0  0  0
   -5.5509    3.0891    0.3982 H   0  0  0  0  0  0  0  0  0  0  0  0
   -1.2066   -1.2534   -1.6080 H   0  0  0  0  0  0  0  0  0  0  0  0
  1  2  1  0
  1  7  1  0
  2  3  1  0
  3  6  1  0
  3  4  2  0
  4 13  1  0
  4 16  1  0
  5  8  1  0
  5  2  2  0
  5 10  1  0
  6 12  2  0
  6 15  1  0
  8 11  2  0
  8 22  1  0
  9 10  1  0
  9 11  1  0
  9 17  1  0
 10 18  2  0
 11 23  1  0
 12 14  1  0
 12 19  1  0
 13 14  2  0
 13 20  1  0
 14 21  1  0
  1 24  1  0
M  END
