19

C 2.14515237 -1.19659184 0.42945414
N 1.07336296 -0.46799408 0.94204013
C -0.11964367 -0.25287262 0.16346568
C -0.17765963 0.79452349 -0.78619688
C 1.18935748 0.23663403 2.23690297
C -1.27777080 -1.02887908 0.40594157
C -2.45436600 -0.77050042 -0.30959529
C -2.50399569 0.25221492 -1.26508422
C -1.36476153 1.03507916 -1.49006102
H -1.26449788 -1.82484173 1.13843085
H 0.69052019 1.40966880 -0.98061781
O 2.18170808 -1.74088762 -0.67049506
H 2.01685309 -0.15293712 2.82960142
H 0.27353144 0.12155011 2.81789194
H 1.35586510 1.30195110 2.07270268
H -3.33735819 -1.38370118 -0.11993773
H -1.39162834 1.83904370 -2.22795718
H -3.42307284 0.44314489 -1.82263024
H 3.01208886 -1.21582153 1.10672805
