19

C 2.24860649 0.57826580 0.69016332
N 1.06928260 -0.09497254 1.03383747
C -0.13152332 -0.04442152 0.20601469
C -0.05886710 -0.03480612 -1.21072186
C 1.09271651 -1.05458540 2.16607973
C -1.41251453 0.01890484 0.81570846
C -2.56883069 0.06250113 0.02514083
C -2.48669446 0.05786697 -1.37146275
C -1.22819662 0.00803174 -1.98035248
H -1.51751312 0.03610085 1.89218647
H 0.89909442 -0.05453945 -1.71146917
O 2.44544189 1.24545111 -0.32340066
H 0.50873094 -1.94448193 1.92763898
H 0.67057947 -0.59430073 3.05986737
H 2.10860284 -1.38002208 2.39071694
H -3.54474320 0.10630583 0.51243086
H -1.14685723 0.01218294 -3.06899835
H -3.39256865 0.09606600 -1.97975240
H 3.06893375 0.37923657 1.39695757
