19

C 2.35227943 0.18477349 0.42527257
N 1.11882647 -0.23128444 0.94364607
C -0.13268680 -0.05133204 0.21477620
C -0.20109698 -0.19855673 -1.19472882
C 1.12274024 -1.15603626 2.10552617
C -1.30668713 0.34667710 0.90744091
C -2.50770271 0.53627573 0.21036949
C -2.57153934 0.35735624 -1.17569091
C -1.41344991 -0.00868066 -1.86969124
H -1.29322003 0.51739302 1.97569371
H 0.68093798 -0.45986568 -1.76260129
O 2.55036186 0.70028370 -0.67313752
H 0.16356467 -1.15358560 2.62111830
H 1.89107615 -0.87241451 2.82559744
H 1.32588318 -2.17468350 1.77193919
H -3.40108635 0.83525061 0.76212478
H -1.44342456 -0.13964486 -2.95298670
H -3.51045966 0.51061995 -1.71146288
H 3.19936448 -0.14375954 1.04738051
