19

C 2.33324293 0.27990624 0.49676726
N 1.10691509 -0.21388872 0.95757665
C -0.13154943 -0.06568197 0.20102043
C -0.15586085 -0.15836338 -1.21438485
C 1.11104428 -1.11084052 2.13999353
C -1.34315058 0.23579997 0.87755485
C -2.53398553 0.39417632 0.15572553
C -2.55172670 0.27593720 -1.23828277
C -1.35855520 -0.00039185 -1.91435275
H -1.36548893 0.35273713 1.95305887
H 0.75284468 -0.35015629 -1.76781228
O 2.54201236 0.84902534 -0.57266038
H 1.34856380 -0.54693555 3.04262116
H 1.85155475 -1.90230284 2.01625834
H 0.14239994 -1.59087368 2.27775098
H -3.45620791 0.62037252 0.69464003
H -1.35399325 -0.08408589 -3.00262988
H -3.48299485 0.40544973 -1.79331799
H 3.16861738 0.00890424 1.16105927
