19

C 2.24939243 0.55565849 0.68819056
N 1.07996918 -0.14631309 1.00513857
C -0.12835237 -0.07347449 0.18450838
C -0.05519491 0.00139247 -1.23081777
C 1.08422576 -1.01414277 2.20938865
C -1.41346601 -0.06449237 0.79152356
C -2.56896367 -0.01016704 0.00014747
C -2.48405625 0.04897709 -1.39478767
C -1.22364306 0.05408354 -2.00106346
H -1.52498184 -0.09071716 1.86722355
H 0.90317872 0.02080691 -1.73064163
O 2.43771234 1.27129432 -0.29339168
H 0.21722163 -1.67342614 2.23142794
H 1.09967079 -0.40661262 3.11496493
H 1.97249012 -1.64775999 2.21590397
H -3.54670390 -0.00805106 0.48627535
H -1.14016099 0.10784357 -3.08816018
H -3.38928435 0.09513969 -2.00335970
H 3.05462539 0.37874364 1.41811517
