19

C 2.01852681 -1.41515672 0.59201519
N 1.10468588 -0.41072587 0.90797151
C -0.09919271 -0.22253194 0.13578551
C -0.27030663 0.94714909 -0.64335439
C 1.30260042 0.43723836 2.10385318
C -1.16512243 -1.14905343 0.22880331
C -2.35808349 -0.91659329 -0.46752382
C -2.51662468 0.22882729 -1.25720890
C -1.47196479 1.15840028 -1.33240281
H -1.06403769 -2.04301551 0.82933847
H 0.51935088 1.68298901 -0.71668560
O 1.89653680 -2.23861374 -0.31064339
H 1.98125669 -0.03424192 2.81473135
H 0.35420302 0.60510674 2.61574278
H 1.71992650 1.40325678 1.81852565
H -3.16648965 -1.64648585 -0.39504169
H -1.58625069 2.05965473 -1.93779202
H -3.44801141 0.40065731 -1.80044337
H 2.87268118 -1.44807733 1.28491505
