19

C 1.24333528 0.47463297 2.29420432
N 0.99798678 -0.25914322 1.12721345
C -0.21624259 -0.07712093 0.33444331
C -0.84775186 -1.18678787 -0.28895699
C 1.99639111 -1.26272759 0.68020550
C -0.75255245 1.21679871 0.10447100
C -1.88558934 1.38324071 -0.70164733
C -2.50967758 0.28298940 -1.29816525
C -1.98157742 -0.99556935 -1.09043643
H -0.29772255 2.08749619 0.55640671
H -0.47578187 -2.19315860 -0.15253061
O 0.52913730 1.35348869 2.77233259
H 2.97153597 -1.08253574 1.13263608
H 2.12078164 -1.22204635 -0.40265506
H 1.67514531 -2.26710375 0.95749035
H -2.28497385 2.38753198 -0.85504930
H -2.45747755 -1.86206125 -1.55376688
H -3.39569863 0.42072838 -1.92108124
H 2.19441930 0.20013663 2.77547280
