19

C 2.26244229 0.53413592 0.66067716
N 1.06223553 -0.07594653 1.05060941
C -0.14266658 -0.01445835 0.22742139
C -0.08151570 -0.07392813 -1.18886817
C 1.11236982 -1.08747381 2.13709399
C -1.41571403 0.12846701 0.84071845
C -2.57627894 0.17458694 0.05660066
C -2.50590181 0.09703402 -1.33826679
C -1.25492523 -0.02645980 -1.95192449
H -1.51132564 0.21130480 1.91503109
H 0.87061236 -0.15520680 -1.69442307
O 2.47033926 1.14293056 -0.38718259
H 1.45376952 -2.04488788 1.74061510
H 0.13029747 -1.24492760 2.58019660
H 1.79392212 -0.77671305 2.92934380
H -3.54578342 0.27917965 0.54759929
H -1.18255511 -0.07865214 -3.03985183
H -3.41476467 0.13793003 -1.94176073
H 3.09912476 0.27187017 1.32695471
