19

C 1.45209135 0.68205139 2.08912653
N 1.00296024 -0.25379323 1.13879799
C -0.22794968 -0.07286017 0.32914019
C -0.71209227 -1.12136778 -0.50754042
C 1.86637194 -1.44326612 0.88961285
C -0.92589207 1.16638081 0.28981613
C -2.05740148 1.33201829 -0.51881315
C -2.52793240 0.28806920 -1.31827390
C -1.84771662 -0.93185635 -1.30748495
H -0.59838443 2.00628332 0.88281525
H -0.23781401 -2.09235874 -0.53571707
O 0.95809510 1.77063008 2.38084243
H 2.89066657 -1.26823582 1.21900633
H 1.90954604 -1.68008187 -0.17327628
H 1.47829427 -2.30886122 1.42820298
H -2.57270138 2.29435294 -0.51797595
H -2.20236918 -1.75669801 -1.92878132
H -3.41174998 0.42437151 -1.94455815
H 2.38766202 0.36400878 2.57564749
