19

C 2.15086785 -1.17613355 0.41938454
N 1.08548005 -0.43588648 0.92878346
C -0.11561189 -0.22985724 0.16046433
C -0.18021451 0.80206469 -0.80537887
C 1.18538722 0.22272355 2.24910589
C -1.26813207 -1.01085753 0.41408702
C -2.44884926 -0.76579389 -0.29948817
C -2.50678074 0.24515368 -1.26699595
C -1.37105933 1.02858614 -1.50759106
H -1.24750085 -1.79995402 1.15392887
H 0.68507973 1.41766223 -1.01137678
O 2.17652322 -1.74032551 -0.67087983
H 1.98045428 -0.21723922 2.85120448
H 0.25226577 0.11458988 2.80321152
H 1.39458075 1.28592836 2.12669695
H -3.32865811 -1.38005079 -0.09876612
H -1.40389615 1.82318982 -2.25530045
H -3.42874315 0.42589753 -1.82339464
H 3.01249118 -1.21091366 1.10289081
