19

C 2.36162207 0.17955878 0.42409536
N 1.12295604 -0.21454130 0.94782913
C -0.12563385 -0.02356916 0.21454354
C -0.19555929 -0.18233651 -1.19380729
C 1.11740904 -1.15035143 2.10117065
C -1.30649339 0.35101027 0.90889522
C -2.51064721 0.52351046 0.21292139
C -2.57242845 0.34697325 -1.17347321
C -1.41031003 -0.00501526 -1.86812333
H -1.29657561 0.51674802 1.97796754
H 0.68753780 -0.43961917 -1.76191988
O 2.56626767 0.68101941 -0.67969386
H 0.16856560 -1.11509391 2.63469296
H 1.89824332 -0.88970537 2.81666042
H 1.27596670 -2.17357680 1.75818144
H -3.40842040 0.80639858 0.76624097
H -1.43968897 -0.13654344 -2.95133334
H -3.51386869 0.48759552 -1.70828610
H 3.20473565 -0.16367594 1.04402339
