19

C 2.07889959 0.78744443 1.01322659
N 1.10076221 -0.20363054 0.96129820
C -0.10495479 -0.02221710 0.19504168
C -0.20686824 -0.55227253 -1.11299030
C 1.24554634 -1.45153423 1.74056720
C -1.23159583 0.60800105 0.77396311
C -2.42008424 0.72478686 0.04151114
C -2.51310838 0.21986851 -1.26146730
C -1.40592095 -0.42545809 -1.82644293
H -1.18301246 1.00666935 1.77842655
H 0.63539998 -1.05253957 -1.57175401
O 2.04671931 1.85923499 0.41523207
H 2.28299796 -1.61898804 2.03018576
H 0.92503959 -2.31078105 1.15040065
H 0.63814967 -1.40496436 2.64523127
H -3.27753084 1.22427801 0.49638202
H -1.46785669 -0.83058408 -2.83821629
H -3.44131355 0.32007121 -1.82778315
H 2.92241631 0.52140316 1.66777175
