15
0 1 C4H9NO
C                     2.015045787525    -0.462757868643     0.761022042555
N                     0.827611297234    -0.001377101360     0.056222538903
C                    -0.339039403010    -0.704420290500     0.535434100570
C                    -1.578252147138    -0.522499252708    -0.305409539077
C                     0.678860559716     1.441310082252     0.209360808770
H                    -0.132764149273    -1.784293709351     0.541571892749
H                    -0.612508433405    -0.448804176902     1.583361641696
O                    -1.669830604336     0.164404496682    -1.310324349564
H                     0.543247528312     1.739000201223     1.265355154258
H                    -0.173351927342     1.784209414402    -0.374748856915
H                     2.143142739385    -1.536802923326     0.602841584769
H                     1.972559150027    -0.272140681564     1.848728733516
H                     2.891036950673     0.050234044094     0.357420585871
H                    -2.453654248125    -1.095439523484     0.069151246103
H                     1.577575254142     1.931219859922    -0.172104739906
