
     RDKit          3D

 15 14  0  0  0  0  0  0  0  0999 V2000
    1.8681    0.1833   -0.4835 C   0  0  0  0  0  0  0  0  0  0  0  0
    2.0435   -0.5655    0.6715 O   0  0  0  0  0  0  0  0  0  0  0  0
    0.6642    0.4665   -0.9409 C   0  0  0  0  0  0  0  0  0  0  0  0
   -0.5336    0.0526   -0.3257 N   0  0  0  0  0  0  0  0  0  0  0  0
   -0.7415   -1.3400   -0.0165 C   0  0  0  0  0  0  0  0  0  0  0  0
   -1.5295    1.0395   -0.0181 C   0  0  0  0  0  0  0  0  0  0  0  0
    2.7238    0.5487   -1.0303 H   0  0  0  0  0  0  0  0  0  0  0  0
    2.8211   -0.2840    1.2736 H   0  0  0  0  0  0  0  0  0  0  0  0
    0.5452    1.0597   -1.8555 H   0  0  0  0  0  0  0  0  0  0  0  0
   -0.2816   -2.0065   -0.7840 H   0  0  0  0  0  0  0  0  0  0  0  0
   -1.8082   -1.6140    0.0474 H   0  0  0  0  0  0  0  0  0  0  0  0
   -0.3113   -1.5127    0.9943 H   0  0  0  0  0  0  0  0  0  0  0  0
   -1.7150    1.7560   -0.8376 H   0  0  0  0  0  0  0  0  0  0  0  0
   -2.5280    0.5676    0.1955 H   0  0  0  0  0  0  0  0  0  0  0  0
   -1.2174    1.6488    0.8597 H   0  0  0  0  0  0  0  0  0  0  0  0
  1  2  1  0
  1  3  2  3
  3  4  1  0
  4  5  1  0
  4  6  1  0
  1  7  1  0
  2  8  1  0
  3  9  1  0
  5 10  1  0
  5 11  1  0
  5 12  1  0
  6 13  1  0
  6 14  1  0
  6 15  1  0
M  END
