14

H 2.06721717 0.10168234 -0.36499432
C 1.15310309 0.63695572 -0.63397872
N -0.05325864 -0.20310133 -0.25063843
H -0.22273377 -0.86422160 -1.02841374
H 1.15112173 0.77218448 -1.71890129
H 1.12268823 1.59652994 -0.11275572
C -1.30652986 0.63567835 -0.10462153
C 0.20059297 -1.04312495 0.98660268
H -1.17218208 1.35638423 0.70586383
H -1.49443621 1.15565359 -1.04783892
H 1.10384633 -1.63940131 0.83551625
H 0.33169321 -0.38469239 1.84918815
H -2.15078412 -0.02321355 0.11511467
H -0.65174203 -1.70854152 1.14586409
