14

H 1.28721151 0.53703112 -1.69855529
C 1.18982789 0.59038076 -0.61058343
N -0.00263813 -0.25792751 -0.20166103
H -0.03701460 -1.06524698 -0.84788275
H 1.01824437 1.63125510 -0.32606337
H 2.10151844 0.20310166 -0.15017387
C -1.31290546 0.48740912 -0.35889581
C 0.14932073 -0.82508968 1.19626463
H -1.32149064 1.35628666 0.30400296
H -1.41611757 0.80314925 -1.40040268
H 1.09825184 -1.36308329 1.26325715
H 0.13589167 -0.00711308 1.92106909
H -2.13639959 -0.18564773 -0.10603234
H -0.67510347 -1.51573638 1.39166374
