14

H 1.59810585 0.19234641 -1.54854252
C 1.18555430 0.60568823 -0.62432636
N -0.01684266 -0.24130018 -0.21323337
H -0.08877453 -1.01865140 -0.89300954
H 0.87703540 1.63971718 -0.79424496
H 1.94828124 0.58064953 0.15705657
C -1.31898423 0.53061814 -0.29441457
C 0.16271081 -0.88853974 1.14666816
H -1.28787196 1.37043840 0.40439585
H -1.45095007 0.89357777 -1.31710417
H 1.10026191 -1.45081356 1.15156284
H 0.18566312 -0.11278328 1.91630511
H -2.14589845 -0.13827451 -0.04191112
H -0.66969271 -1.57390098 1.32680609
