
     RDKit          3D

 34 36  0  0  0  0  0  0  0  0999 V2000
   -2.0275    2.3623    0.6745 C   0  0  0  0  0  0  0  0  0  0  0  0
   -1.3514    3.4699    1.4400 C   0  0  0  0  0  0  0  0  0  0  0  0
   -0.3121    3.8828    0.8234 N   0  0  0  0  0  0  0  0  0  0  0  0
   -0.1172    3.1820   -0.3743 C   0  0  0  0  0  0  0  0  0  0  0  0
    0.7092    3.4127   -1.3189 O   0  0  0  0  0  0  0  0  0  0  0  0
   -1.0595    2.0599   -0.4062 C   0  0  0  0  0  0  0  0  0  0  0  0
   -0.3774    0.7281   -0.2716 C   0  0  0  0  0  0  0  0  0  0  0  0
   -1.1861   -0.4641   -0.3181 C   0  0  0  0  0  0  0  0  0  0  0  0
   -0.6986   -1.7358   -0.1232 C   0  0  0  0  0  0  0  0  0  0  0  0
   -1.5434   -2.8193   -0.2026 C   0  0  0  0  0  0  0  0  0  0  0  0
   -2.8863   -2.6732   -0.4755 C   0  0  0  0  0  0  0  0  0  0  0  0
   -3.3736   -1.3835   -0.6718 C   0  0  0  0  0  0  0  0  0  0  0  0
   -2.5485   -0.3052   -0.5961 C   0  0  0  0  0  0  0  0  0  0  0  0
    0.8390    0.7375   -0.1064 N   0  0  0  0  0  0  0  0  0  0  0  0
    1.9297   -0.0441    0.0663 C   0  0  0  0  0  0  0  0  0  0  0  0
    2.5867   -0.5341   -1.0727 C   0  0  0  0  0  0  0  0  0  0  0  0
    3.7007   -1.3225   -1.0208 C   0  0  0  0  0  0  0  0  0  0  0  0
    4.2329   -1.6736    0.1926 C   0  0  0  0  0  0  0  0  0  0  0  0
    3.6278   -1.2202    1.3429 C   0  0  0  0  0  0  0  0  0  0  0  0
    2.5036   -0.4249    1.2755 C   0  0  0  0  0  0  0  0  0  0  0  0
   -2.2649    1.5163    1.3490 H   0  0  0  0  0  0  0  0  0  0  0  0
   -2.9355    2.8398    0.2437 H   0  0  0  0  0  0  0  0  0  0  0  0
   -1.6770    3.8934    2.4019 H   0  0  0  0  0  0  0  0  0  0  0  0
   -1.5848    2.1191   -1.4042 H   0  0  0  0  0  0  0  0  0  0  0  0
    0.3470   -1.8764    0.0936 H   0  0  0  0  0  0  0  0  0  0  0  0
   -1.1402   -3.8150   -0.0459 H   0  0  0  0  0  0  0  0  0  0  0  0
   -3.5777   -3.4918   -0.5457 H   0  0  0  0  0  0  0  0  0  0  0  0
   -4.4353   -1.2354   -0.8901 H   0  0  0  0  0  0  0  0  0  0  0  0
   -2.9889    0.6699   -0.7661 H   0  0  0  0  0  0  0  0  0  0  0  0
    2.2020   -0.2824   -2.0515 H   0  0  0  0  0  0  0  0  0  0  0  0
    4.2000   -1.6956   -1.9203 H   0  0  0  0  0  0  0  0  0  0  0  0
    5.1222   -2.3036    0.2088 H   0  0  0  0  0  0  0  0  0  0  0  0
    4.0643   -1.5089    2.3081 H   0  0  0  0  0  0  0  0  0  0  0  0
    2.0209   -0.0638    2.1616 H   0  0  0  0  0  0  0  0  0  0  0  0
  1  2  1  0
  2  3  2  0
  3  4  1  0
  4  5  2  0
  4  6  1  0
  6  7  1  0
  7  8  1  0
  8  9  2  0
  9 10  1  0
 10 11  2  0
 11 12  1  0
 12 13  2  0
  7 14  2  3
 14 15  1  0
 15 16  2  0
 16 17  1  0
 17 18  2  0
 18 19  1  0
 19 20  2  0
  6  1  1  0
 13  8  1  0
 20 15  1  0
  1 21  1  0
  1 22  1  0
  2 23  1  0
  6 24  1  0
  9 25  1  0
 10 26  1  0
 11 27  1  0
 12 28  1  0
 13 29  1  0
 16 30  1  0
 17 31  1  0
 18 32  1  0
 19 33  1  0
 20 34  1  0
M  END
