
     RDKit          3D

 34 36  0  0  0  0  0  0  0  0999 V2000
    3.1957    1.3751   -0.4835 C   0  0  0  0  0  0  0  0  0  0  0  0
    4.4268    0.8426   -1.1154 C   0  0  0  0  0  0  0  0  0  0  0  0
    4.1520   -0.2987   -1.5654 N   0  0  0  0  0  0  0  0  0  0  0  0
    2.8067   -0.6621   -1.3164 C   0  0  0  0  0  0  0  0  0  0  0  0
    2.2574   -1.9076   -1.7303 O   0  0  0  0  0  0  0  0  0  0  0  0
    2.2101    0.3319   -0.6633 C   0  0  0  0  0  0  0  0  0  0  0  0
    0.7766    0.2141   -0.2480 C   0  0  0  0  0  0  0  0  0  0  0  0
    0.0507    1.2562    0.4674 C   0  0  0  0  0  0  0  0  0  0  0  0
   -1.2462    0.9843    0.9437 C   0  0  0  0  0  0  0  0  0  0  0  0
   -1.9975    1.9337    1.6115 C   0  0  0  0  0  0  0  0  0  0  0  0
   -1.5051    3.1814    1.8359 C   0  0  0  0  0  0  0  0  0  0  0  0
   -0.2356    3.4527    1.3714 C   0  0  0  0  0  0  0  0  0  0  0  0
    0.5313    2.5106    0.6991 C   0  0  0  0  0  0  0  0  0  0  0  0
    0.2716   -0.8935   -0.5500 N   0  0  0  0  0  0  0  0  0  0  0  0
   -0.8065   -1.6790   -0.5312 C   0  0  0  0  0  0  0  0  0  0  0  0
   -1.7809   -1.5175   -1.5384 C   0  0  0  0  0  0  0  0  0  0  0  0
   -2.9138   -2.2887   -1.6021 C   0  0  0  0  0  0  0  0  0  0  0  0
   -3.1388   -3.2684   -0.6603 C   0  0  0  0  0  0  0  0  0  0  0  0
   -2.1958   -3.4472    0.3400 C   0  0  0  0  0  0  0  0  0  0  0  0
   -1.0766   -2.6769    0.3933 C   0  0  0  0  0  0  0  0  0  0  0  0
    3.3898    1.6781    0.5640 H   0  0  0  0  0  0  0  0  0  0  0  0
    2.9922    2.3135   -1.0903 H   0  0  0  0  0  0  0  0  0  0  0  0
    5.3568    1.3950   -1.1450 H   0  0  0  0  0  0  0  0  0  0  0  0
    1.6627   -1.9245   -2.5400 H   0  0  0  0  0  0  0  0  0  0  0  0
   -1.7026    0.0453    0.8204 H   0  0  0  0  0  0  0  0  0  0  0  0
   -2.9951    1.6975    1.9683 H   0  0  0  0  0  0  0  0  0  0  0  0
   -2.1061    3.9123    2.3601 H   0  0  0  0  0  0  0  0  0  0  0  0
    0.1836    4.4230    1.5301 H   0  0  0  0  0  0  0  0  0  0  0  0
    1.4895    2.8486    0.3853 H   0  0  0  0  0  0  0  0  0  0  0  0
   -1.6095   -0.7502   -2.2801 H   0  0  0  0  0  0  0  0  0  0  0  0
   -3.6436   -2.1317   -2.3980 H   0  0  0  0  0  0  0  0  0  0  0  0
   -4.0339   -3.8823   -0.7038 H   0  0  0  0  0  0  0  0  0  0  0  0
   -2.4015   -4.2362    1.0777 H   0  0  0  0  0  0  0  0  0  0  0  0
   -0.3644   -2.8317    1.1714 H   0  0  0  0  0  0  0  0  0  0  0  0
  1  2  1  0
  2  3  2  0
  3  4  1  0
  4  5  1  0
  4  6  2  0
  6  7  1  0
  7  8  1  0
  8  9  2  0
  9 10  1  0
 10 11  2  0
 11 12  1  0
 12 13  2  0
  7 14  2  3
 14 15  1  0
 15 16  2  0
 16 17  1  0
 17 18  2  0
 18 19  1  0
 19 20  2  0
  6  1  1  0
 13  8  1  0
 20 15  1  0
  1 21  1  0
  1 22  1  0
  2 23  1  0
  5 24  1  0
  9 25  1  0
 10 26  1  0
 11 27  1  0
 12 28  1  0
 13 29  1  0
 16 30  1  0
 17 31  1  0
 18 32  1  0
 19 33  1  0
 20 34  1  0
M  END
