
     RDKit          3D

 34 36  0  0  0  0  0  0  0  0999 V2000
   -1.2980   -2.2441   -1.9403 C   0  0  0  0  0  0  0  0  0  0  0  0
   -1.9076   -3.2447   -1.3548 C   0  0  0  0  0  0  0  0  0  0  0  0
   -2.7803   -2.7553   -0.3563 N   0  0  0  0  0  0  0  0  0  0  0  0
   -2.7390   -1.4684   -0.2942 C   0  0  0  0  0  0  0  0  0  0  0  0
   -3.5173   -0.7447    0.6215 O   0  0  0  0  0  0  0  0  0  0  0  0
   -1.7805   -1.0003   -1.3081 C   0  0  0  0  0  0  0  0  0  0  0  0
   -0.6146   -0.2807   -0.6398 C   0  0  0  0  0  0  0  0  0  0  0  0
   -0.9295    1.0195   -0.0942 C   0  0  0  0  0  0  0  0  0  0  0  0
   -0.0331    1.6776    0.7030 C   0  0  0  0  0  0  0  0  0  0  0  0
   -0.2942    2.9595    1.2214 C   0  0  0  0  0  0  0  0  0  0  0  0
   -1.4860    3.5887    0.9281 C   0  0  0  0  0  0  0  0  0  0  0  0
   -2.3976    2.9577    0.1366 C   0  0  0  0  0  0  0  0  0  0  0  0
   -2.1071    1.6913   -0.3594 C   0  0  0  0  0  0  0  0  0  0  0  0
    0.4783   -0.8564   -0.5659 N   0  0  0  0  0  0  0  0  0  0  0  0
    1.7463   -0.7350   -0.1319 C   0  0  0  0  0  0  0  0  0  0  0  0
    2.7667   -0.0345   -0.7930 C   0  0  0  0  0  0  0  0  0  0  0  0
    4.0430    0.0399   -0.2982 C   0  0  0  0  0  0  0  0  0  0  0  0
    4.3753   -0.5787    0.8825 C   0  0  0  0  0  0  0  0  0  0  0  0
    3.4100   -1.2665    1.5491 C   0  0  0  0  0  0  0  0  0  0  0  0
    2.1431   -1.3452    1.0660 C   0  0  0  0  0  0  0  0  0  0  0  0
   -0.5619   -2.3523   -2.7564 H   0  0  0  0  0  0  0  0  0  0  0  0
   -1.7445   -4.3080   -1.6224 H   0  0  0  0  0  0  0  0  0  0  0  0
   -3.6329   -1.0754    1.5863 H   0  0  0  0  0  0  0  0  0  0  0  0
   -2.2964   -0.3633   -2.0333 H   0  0  0  0  0  0  0  0  0  0  0  0
    0.9018    1.2234    0.9611 H   0  0  0  0  0  0  0  0  0  0  0  0
    0.4207    3.4647    1.8470 H   0  0  0  0  0  0  0  0  0  0  0  0
   -1.7398    4.5757    1.3004 H   0  0  0  0  0  0  0  0  0  0  0  0
   -3.3592    3.3942   -0.1362 H   0  0  0  0  0  0  0  0  0  0  0  0
   -2.8327    1.2278   -0.9927 H   0  0  0  0  0  0  0  0  0  0  0  0
    2.4870    0.4385   -1.7081 H   0  0  0  0  0  0  0  0  0  0  0  0
    4.8342    0.5805   -0.8065 H   0  0  0  0  0  0  0  0  0  0  0  0
    5.3803   -0.5260    1.2818 H   0  0  0  0  0  0  0  0  0  0  0  0
    3.6660   -1.7606    2.4876 H   0  0  0  0  0  0  0  0  0  0  0  0
    1.3997   -1.8991    1.6193 H   0  0  0  0  0  0  0  0  0  0  0  0
  1  2  2  0
  2  3  1  0
  3  4  2  0
  4  5  1  0
  4  6  1  0
  6  7  1  0
  7  8  1  0
  8  9  2  0
  9 10  1  0
 10 11  2  0
 11 12  1  0
 12 13  2  0
  7 14  2  3
 14 15  1  0
 15 16  2  0
 16 17  1  0
 17 18  2  0
 18 19  1  0
 19 20  2  0
  6  1  1  0
 13  8  1  0
 20 15  1  0
  1 21  1  0
  2 22  1  0
  5 23  1  0
  6 24  1  0
  9 25  1  0
 10 26  1  0
 11 27  1  0
 12 28  1  0
 13 29  1  0
 16 30  1  0
 17 31  1  0
 18 32  1  0
 19 33  1  0
 20 34  1  0
M  END
