
     RDKit          3D

 24 25  0  0  0  0  0  0  0  0999 V2000
   -1.6813   -0.1001   -2.9211 H   0  0  0  0  0  0  0  0  0  0  0  0
   -1.8695   -0.6048   -2.0560 N   0  0  0  0  0  0  0  0  0  0  0  0
   -0.6903   -0.6933   -1.2769 C   0  0  0  0  0  0  0  0  0  0  0  0
    0.5457   -0.7467   -1.9262 C   0  0  0  0  0  0  0  0  0  0  0  0
   -3.1320   -0.3089   -1.5560 C   0  0  0  0  0  0  0  0  0  0  0  0
   -0.6990   -0.8761    0.1061 C   0  0  0  0  0  0  0  0  0  0  0  0
   -3.5693    0.8496   -1.0094 C   0  0  0  0  0  0  0  0  0  0  0  0
   -3.5225    3.0485   -0.3040 N   0  0  0  0  0  0  0  0  0  0  0  0
   -4.8891    1.2114   -0.4369 C   0  0  0  0  0  0  0  0  0  0  0  0
   -2.7104    2.0976   -0.8973 C   0  0  0  0  0  0  0  0  0  0  0  0
   -4.7872    2.5483   -0.0370 C   0  0  0  0  0  0  0  0  0  0  0  0
    0.4964   -1.0402    0.8236 C   0  0  0  0  0  0  0  0  0  0  0  0
    1.7411   -0.9126   -1.2099 C   0  0  0  0  0  0  0  0  0  0  0  0
    1.7462   -1.0508    0.1825 C   0  0  0  0  0  0  0  0  0  0  0  0
   -1.6356   -0.8815    0.6553 H   0  0  0  0  0  0  0  0  0  0  0  0
    0.5967   -0.6653   -3.0093 H   0  0  0  0  0  0  0  0  0  0  0  0
   -3.2052    3.9879   -0.1202 H   0  0  0  0  0  0  0  0  0  0  0  0
   -1.5657    2.2935   -1.2575 O   0  0  0  0  0  0  0  0  0  0  0  0
    0.4057   -1.1316    1.9015 H   0  0  0  0  0  0  0  0  0  0  0  0
    2.6537   -0.9697   -1.7945 H   0  0  0  0  0  0  0  0  0  0  0  0
   -5.7160    0.6000   -0.3509 H   0  0  0  0  0  0  0  0  0  0  0  0
   -5.5509    3.0891    0.3982 H   0  0  0  0  0  0  0  0  0  0  0  0
    2.6254   -1.1554    0.7127 H   0  0  0  0  0  0  0  0  0  0  0  0
   -3.8716   -1.1213   -1.6117 H   0  0  0  0  0  0  0  0  0  0  0  0
  2  5  1  0
  2  3  1  0
  2  1  1  0
  3  6  1  0
  3  4  2  0
  4 13  1  0
  4 16  1  0
  6 12  2  0
  6 15  1  0
  7  9  1  0
  7  5  2  0
  7 10  1  0
  8 10  1  0
  8 11  1  0
  8 17  1  0
  9 11  2  0
  9 21  1  0
 10 18  2  0
 11 22  1  0
 12 14  1  0
 12 19  1  0
 13 14  2  0
 13 20  1  0
 14 23  1  0
  5 24  1  0
M  END
