
 OpenBabel11182308033D

 24 25  0  0  0  0  0  0  0  0999 V2000
   -2.9243    1.6872    0.7087 C   0  0  0  0  0  0  0  0  0  0  0  0
   -4.2908    1.1358    0.6430 C   0  0  0  0  0  0  0  0  0  0  0  0
   -4.2207   -0.0714    0.2497 N   0  0  0  0  0  0  0  0  0  0  0  0
   -2.8848   -0.4704    0.0128 C   0  0  0  0  0  0  0  0  0  0  0  0
   -2.5480   -1.7540   -0.4267 O   0  0  0  0  0  0  0  0  0  0  0  0
   -2.0793    0.5458    0.2735 C   0  0  0  0  0  0  0  0  0  0  0  0
   -0.6288    0.4964    0.1395 C   0  0  0  0  0  0  0  0  0  0  0  0
   -0.0032   -0.5411   -0.2446 N   0  0  0  0  0  0  0  0  0  0  0  0
    1.4028   -0.5465   -0.3608 C   0  0  0  0  0  0  0  0  0  0  0  0
    2.0592    0.2751   -1.2517 C   0  0  0  0  0  0  0  0  0  0  0  0
    3.4385    0.2479   -1.3435 C   0  0  0  0  0  0  0  0  0  0  0  0
    4.2153   -0.5984   -0.5516 C   0  0  0  0  0  0  0  0  0  0  0  0
    3.5506   -1.4052    0.3250 C   0  0  0  0  0  0  0  0  0  0  0  0
    2.1826   -1.3794    0.4172 C   0  0  0  0  0  0  0  0  0  0  0  0
   -2.6695    1.8990    1.7666 H   0  0  0  0  0  0  0  0  0  0  0  0
   -2.7707    2.5648    0.0441 H   0  0  0  0  0  0  0  0  0  0  0  0
   -5.1833    1.6923    0.8943 H   0  0  0  0  0  0  0  0  0  0  0  0
   -3.1928   -2.2982   -0.9860 H   0  0  0  0  0  0  0  0  0  0  0  0
   -0.0825    1.3970    0.3841 H   0  0  0  0  0  0  0  0  0  0  0  0
    1.5437    0.9633   -1.9057 H   0  0  0  0  0  0  0  0  0  0  0  0
    3.9670    0.8805   -2.0314 H   0  0  0  0  0  0  0  0  0  0  0  0
    5.2791   -0.5888   -0.6534 H   0  0  0  0  0  0  0  0  0  0  0  0
    4.1140   -2.0707    0.9517 H   0  0  0  0  0  0  0  0  0  0  0  0
    1.7261   -2.0611    1.1487 H   0  0  0  0  0  0  0  0  0  0  0  0
  1  2  1  0  0  0  0
  1 15  1  0  0  0  0
  1 16  1  0  0  0  0
  2  3  2  0  0  0  0
  2 17  1  0  0  0  0
  3  4  1  0  0  0  0
  4  5  1  0  0  0  0
  4  6  2  0  0  0  0
  5 18  1  0  0  0  0
  6  7  1  0  0  0  0
  6  1  1  0  0  0  0
  7  8  2  3  0  0  0
  7 19  1  0  0  0  0
  8  9  1  0  0  0  0
  9 10  2  0  0  0  0
 10 11  1  0  0  0  0
 10 20  1  0  0  0  0
 11 12  2  0  0  0  0
 11 21  1  0  0  0  0
 12 13  1  0  0  0  0
 12 22  1  0  0  0  0
 13 14  2  0  0  0  0
 13 23  1  0  0  0  0
 14  9  1  0  0  0  0
 14 24  1  0  0  0  0
M  END
$$$$
