
     RDKit          3D

 24 25  0  0  0  0  0  0  0  0999 V2000
    2.8301    1.0063    0.1141 C   0  0  0  0  0  0  0  0  0  0  0  0
    3.9125    0.5506    0.7042 C   0  0  0  0  0  0  0  0  0  0  0  0
    4.1020   -0.8299    0.4591 N   0  0  0  0  0  0  0  0  0  0  0  0
    3.0332   -1.2605   -0.3597 C   0  0  0  0  0  0  0  0  0  0  0  0
    2.8687   -2.4589   -0.7891 O   0  0  0  0  0  0  0  0  0  0  0  0
    2.1752   -0.0921   -0.6113 C   0  0  0  0  0  0  0  0  0  0  0  0
    0.7751   -0.3107   -0.1621 C   0  0  0  0  0  0  0  0  0  0  0  0
   -0.1404    0.4004   -0.6803 N   0  0  0  0  0  0  0  0  0  0  0  0
   -1.5197    0.3002   -0.3473 C   0  0  0  0  0  0  0  0  0  0  0  0
   -2.3764    1.3685   -0.5179 C   0  0  0  0  0  0  0  0  0  0  0  0
   -3.7172    1.2726   -0.1947 C   0  0  0  0  0  0  0  0  0  0  0  0
   -4.2549    0.1062    0.3116 C   0  0  0  0  0  0  0  0  0  0  0  0
   -3.4004   -0.9634    0.4831 C   0  0  0  0  0  0  0  0  0  0  0  0
   -2.0596   -0.8643    0.1587 C   0  0  0  0  0  0  0  0  0  0  0  0
    2.5076    2.0493    0.1813 H   0  0  0  0  0  0  0  0  0  0  0  0
    4.6052    1.1531    1.3216 H   0  0  0  0  0  0  0  0  0  0  0  0
    4.8814   -1.4351    0.8099 H   0  0  0  0  0  0  0  0  0  0  0  0
    2.1366    0.1766   -1.6963 H   0  0  0  0  0  0  0  0  0  0  0  0
    0.5198   -1.0442    0.5793 H   0  0  0  0  0  0  0  0  0  0  0  0
   -1.9674    2.3032   -0.9189 H   0  0  0  0  0  0  0  0  0  0  0  0
   -4.3907    2.1109   -0.3283 H   0  0  0  0  0  0  0  0  0  0  0  0
   -5.3155    0.0594    0.5576 H   0  0  0  0  0  0  0  0  0  0  0  0
   -3.8194   -1.8783    0.8796 H   0  0  0  0  0  0  0  0  0  0  0  0
   -1.3859   -1.7199    0.2981 H   0  0  0  0  0  0  0  0  0  0  0  0
  1  2  2  0
  2  3  1  0
  3  4  1  0
  4  5  2  0
  4  6  1  0
  6  7  1  0
  7  8  2  3
  8  9  1  0
  9 10  2  0
 10 11  1  0
 11 12  2  0
 12 13  1  0
 13 14  2  0
  6  1  1  0
 14  9  1  0
  1 15  1  0
  2 16  1  0
  3 17  1  0
  6 18  1  0
  7 19  1  0
 10 20  1  0
 11 21  1  0
 12 22  1  0
 13 23  1  0
 14 24  1  0
M  END
