14

H 0.90407427 1.24272850 -1.42772425
C 1.19650577 0.58431225 -0.60663910
N 0.01691656 -0.27081568 -0.17299349
H 0.04698245 -1.14072603 -0.73330024
H 1.56815539 1.16102048 0.24375216
H 1.99195137 -0.08360529 -0.94833408
C -1.31150125 0.39428845 -0.47054461
C 0.11769955 -0.70482328 1.27575866
H -1.38464664 1.32549988 0.09705634
H -1.37476855 0.59910745 -1.54245285
H 1.08190463 -1.19550849 1.43248820
H 0.03459927 0.17149568 1.92333235
H -2.12052566 -0.28397995 -0.18712809
H -0.68875016 -1.41022196 1.49273701
