
 OpenBabel11182308013D

 20 19  0  0  0  0  0  0  0  0999 V2000
   10.9255    1.3505   -0.3904 H   0  0  0  0  0  0  0  0  0  0  0  0
   10.0634    2.0075   -0.2490 C   0  0  0  0  0  0  0  0  0  0  0  0
    8.8770    1.1539    0.0676 N   0  3  0  0  0  0  0  0  0  0  0  0
    8.7711    0.5098   -0.7322 H   0  0  0  0  0  0  0  0  0  0  0  0
    9.8523    2.5519   -1.1731 H   0  0  0  0  0  0  0  0  0  0  0  0
   10.2315    2.6970    0.5825 H   0  0  0  0  0  0  0  0  0  0  0  0
    7.5797    1.9640    0.1340 C   0  0  0  0  0  0  0  0  0  0  0  0
    9.0736    0.2977    1.3054 C   0  0  0  0  0  0  0  0  0  0  0  0
    6.4903    1.2644    0.9843 C   0  0  0  0  0  0  0  0  0  0  0  0
    7.8173    2.9441    0.5615 H   0  0  0  0  0  0  0  0  0  0  0  0
    7.2529    2.0849   -0.9042 H   0  0  0  0  0  0  0  0  0  0  0  0
    7.8625   -0.6492    1.5409 C   0  0  0  0  0  0  0  0  0  0  0  0
    9.9943   -0.2783    1.1664 H   0  0  0  0  0  0  0  0  0  0  0  0
    9.1950    0.9892    2.1470 H   0  0  0  0  0  0  0  0  0  0  0  0
    6.5729    1.5980    2.0276 H   0  0  0  0  0  0  0  0  0  0  0  0
    5.5179    1.6235    0.6309 H   0  0  0  0  0  0  0  0  0  0  0  0
    8.1114   -1.6350    1.1298 H   0  0  0  0  0  0  0  0  0  0  0  0
    7.7426   -0.7783    2.6242 H   0  0  0  0  0  0  0  0  0  0  0  0
    6.5975    0.2025    0.9077 H   0  0  0  0  0  0  0  0  0  0  0  0
    6.9803   -0.2480    1.0874 H   0  0  0  0  0  0  0  0  0  0  0  0
  2  1  1  0  0  0  0
  2  5  1  0  0  0  0
  2  6  1  0  0  0  0
  3  7  1  0  0  0  0
  3  8  1  0  0  0  0
  3  2  1  0  0  0  0
  3  4  1  0  0  0  0
  7 10  1  0  0  0  0
  7 11  1  0  0  0  0
  8 13  1  0  0  0  0
  8 14  1  0  0  0  0
  9  7  1  0  0  0  0
  9 15  1  0  0  0  0
  9 16  1  0  0  0  0
  9 19  1  0  0  0  0
 12  8  1  0  0  0  0
 12 17  1  0  0  0  0
 12 18  1  0  0  0  0
 12 20  1  0  0  0  0
M  CHG  1   3   1
M  END
$$$$
