19

C 2.26990118 0.53474424 0.65728408
N 1.07714525 -0.10069063 1.02946499
C -0.13372929 -0.02656197 0.21256665
C -0.07107276 -0.03951555 -1.20555466
C 1.09542325 -1.05694127 2.16682548
C -1.41198555 0.05396336 0.82725895
C -2.57204406 0.10233271 0.04198681
C -2.49826040 0.08043391 -1.35464711
C -1.24406413 0.00787870 -1.96926701
H -1.51567380 0.08763943 1.90319317
H 0.88256377 -0.08226842 -1.71299596
O 2.46861332 1.17998742 -0.37027407
H 0.96744003 -2.07672278 1.80126517
H 0.29203324 -0.84076934 2.87000306
H 2.03575077 -1.01025968 2.71546811
H -3.54452941 0.16237908 0.53450872
H -1.16919508 -0.00393596 -3.05822238
H -3.40725404 0.12225605 -1.95802027
H 3.10261768 0.30483468 1.33974227
