19

C 1.49121615 0.71624550 2.03777595
N 1.04824305 -0.21791907 1.08222605
C -0.19516440 -0.04917609 0.28639964
C -0.67247479 -1.09534262 -0.55767671
C 1.84557206 -1.46723888 0.92547978
C -0.93182182 1.16832653 0.29275069
C -2.08504670 1.31860787 -0.48771873
C -2.54477280 0.27840885 -1.29777685
C -1.83208155 -0.92235395 -1.32642696
H -0.61664502 2.00425624 0.89769702
H -0.17340883 -2.05176087 -0.62011766
O 0.98279122 1.79356785 2.34630619
H 2.85071634 -1.35661734 1.33167462
H 1.94536002 -1.73626251 -0.12578456
H 1.35695695 -2.29107127 1.44719972
H -2.62719830 2.26549001 -0.45574002
H -2.17995940 -1.74457909 -1.95527884
H -3.44650412 0.40215782 -1.90061450
H 2.40790595 0.38404801 2.55021314
