15

C 1.60381624 -0.34474234 -0.35223199
N 0.58347589 0.66426254 0.02148550
C -0.76026702 0.11731119 0.16781305
C -1.02609442 -1.39307137 0.35164059
C 0.98969536 1.46824621 1.20902303
H -1.30541589 0.62362347 0.99556192
H -1.34417237 0.43580169 -0.72523221
O -0.25526169 -2.34569735 0.39160398
H 1.09421943 0.81949468 2.09459941
H 0.24346632 2.25318073 1.41395469
H 1.27877672 -0.87807336 -1.25906146
H 1.72335718 -1.08491740 0.45292560
H 2.56288217 0.14841550 -0.57747812
H -2.11700396 -1.59821707 0.42927046
H 1.95364506 1.96115188 1.00546152
