15

C 1.85648847 -0.53707397 0.42510273
N 0.65645748 0.28769785 0.10307930
C -0.56432102 -0.32374862 0.61405314
C -1.43903597 -0.98436354 -0.45359849
C 0.80719838 1.69401556 0.57456942
H -0.34359829 -1.10899214 1.37155310
H -1.20124250 0.40140779 1.16799839
O -1.23353346 -1.03538360 -1.65763905
H 0.90516825 1.73673973 1.67203664
H -0.06575658 2.28660456 0.25556320
H 1.72752916 -1.54719634 0.00256690
H 2.01904516 -0.60303515 1.51360239
H 2.74470243 -0.09028074 -0.04956441
H -2.34526581 -1.47077095 -0.03117210
H 1.70128330 2.14115154 0.11118484
