15

C 2.02824801 -0.45450026 0.76946534
N 0.81221598 0.03861283 0.05574161
C -0.37438087 -0.66703978 0.50679088
C -1.64111985 -0.49583102 -0.34096504
C 0.64974514 1.51374257 0.22193820
H -0.17401734 -1.75738954 0.60832498
H -0.63713693 -0.36108128 1.54560941
O -1.78904395 0.17968229 -1.35112376
H 0.49725238 1.79274469 1.27758268
H -0.21532909 1.83566710 -0.37990960
H 2.16097446 -1.53275521 0.58379239
H 1.95573947 -0.27208603 1.85439348
H 2.91763599 0.06073020 0.37205731
H -2.50589106 -1.06450665 0.06515580
H 1.54022866 2.03077811 -0.16951370
