 xtb: 6.5.0 (97a52f5)
          11182308133D

 15  0  0     0  0            999 V2000
    1.5141   -0.0813    1.3685 C   0  0  0  0  0  0  0  0  0  0  0  0
    0.9644   -0.0765    0.0290 N   0  0  0  0  0  0  0  0  0  0  0  0
   -0.2740   -0.8030   -0.1173 C   0  0  0  0  0  0  0  0  0  0  0  0
   -1.4175   -0.4903    0.8213 C   0  0  0  0  0  0  0  0  0  0  0  0
    0.9545    1.2346   -0.5813 C   0  0  0  0  0  0  0  0  0  0  0  0
   -0.6370   -0.6885   -1.1434 H   0  0  0  0  0  0  0  0  0  0  0  0
   -0.0640   -1.8734    0.0257 H   0  0  0  0  0  0  0  0  0  0  0  0
   -1.4260    0.3041    1.7182 O   0  0  0  0  0  0  0  0  0  0  0  0
    0.3213    1.9573   -0.0462 H   0  0  0  0  0  0  0  0  0  0  0  0
    0.5967    1.1514   -1.6069 H   0  0  0  0  0  0  0  0  0  0  0  0
    1.5378   -1.1062    1.7371 H   0  0  0  0  0  0  0  0  0  0  0  0
    0.9489    0.5365    2.0758 H   0  0  0  0  0  0  0  0  0  0  0  0
    2.5360    0.2948    1.3191 H   0  0  0  0  0  0  0  0  0  0  0  0
   -2.3044   -1.1299    0.6180 H   0  0  0  0  0  0  0  0  0  0  0  0
    1.9744    1.6171   -0.5981 H   0  0  0  0  0  0  0  0  0  0  0  0
M  END
