
 OpenBabel11182308033D

 11 10  0  0  0  0  0  0  0  0999 V2000
   -1.8008   -0.3078   -0.1186 N   0  0  0  0  0  0  0  0  0  0  0  0
   -0.5128   -0.4734    0.5088 C   0  0  0  0  0  0  0  0  0  0  0  0
    0.4949    0.2555   -0.2843 C   0  0  0  0  0  0  0  0  0  0  0  0
    1.8662    0.3136    0.0332 N   0  0  0  0  0  0  0  0  0  0  0  0
    0.1519    0.8931   -1.3388 O   0  0  0  0  0  0  0  0  0  0  0  0
   -2.3347    0.5017    0.3002 H   0  0  0  0  0  0  0  0  0  0  0  0
   -1.6742   -0.2128   -1.1463 H   0  0  0  0  0  0  0  0  0  0  0  0
   -0.6091   -0.0883    1.5478 H   0  0  0  0  0  0  0  0  0  0  0  0
   -0.2967   -1.5680    0.5235 H   0  0  0  0  0  0  0  0  0  0  0  0
    2.4742   -0.4957   -0.1335 H   0  0  0  0  0  0  0  0  0  0  0  0
    2.2410    1.1821    0.4340 H   0  0  0  0  0  0  0  0  0  0  0  0
  1  2  1  0  0  0  0
  1  6  1  0  0  0  0
  1  7  1  0  0  0  0
  2  3  1  0  0  0  0
  2  8  1  0  0  0  0
  2  9  1  0  0  0  0
  3  4  1  0  0  0  0
  3  5  2  0  0  0  0
  4 10  1  0  0  0  0
  4 11  1  0  0  0  0
M  END
$$$$
