
 OpenBabel11182308033D

 11 10  0  0  0  0  0  0  0  0999 V2000
    1.8634   -0.0897    0.0464 N   0  0  0  0  0  0  0  0  0  0  0  0
    0.4893    0.2510   -0.0744 C   0  0  0  0  0  0  0  0  0  0  0  0
    0.1261    1.5670   -0.1651 O   0  0  0  0  0  0  0  0  0  0  0  0
   -0.4108   -0.7132   -0.0965 C   0  0  0  0  0  0  0  0  0  0  0  0
   -1.8001   -0.3978   -0.2172 N   0  0  0  0  0  0  0  0  0  0  0  0
    2.5470    0.5158   -0.4520 H   0  0  0  0  0  0  0  0  0  0  0  0
    2.2164   -0.8949    0.5945 H   0  0  0  0  0  0  0  0  0  0  0  0
   -0.2386    2.1232    0.5970 H   0  0  0  0  0  0  0  0  0  0  0  0
   -0.1244   -1.7519   -0.0249 H   0  0  0  0  0  0  0  0  0  0  0  0
   -2.5256   -1.1129    0.0553 H   0  0  0  0  0  0  0  0  0  0  0  0
   -2.1426    0.5033   -0.5611 H   0  0  0  0  0  0  0  0  0  0  0  0
  1  2  1  0  0  0  0
  1  6  1  0  0  0  0
  1  7  1  0  0  0  0
  2  3  1  0  0  0  0
  2  4  2  3  0  0  0
  3  8  1  0  0  0  0
  4  5  1  0  0  0  0
  4  9  1  0  0  0  0
  5 10  1  0  0  0  0
  5 11  1  0  0  0  0
M  END
$$$$
