
     RDKit          3D

 11 10  0  0  0  0  0  0  0  0999 V2000
    1.2546    1.2071    0.2524 N   0  0  0  0  0  0  0  0  0  0  0  0
    0.6253    0.1755   -0.1676 C   0  0  0  0  0  0  0  0  0  0  0  0
    1.2904   -1.0143   -0.3259 O   0  0  0  0  0  0  0  0  0  0  0  0
   -0.8158    0.3372   -0.4630 C   0  0  0  0  0  0  0  0  0  0  0  0
   -1.6428   -0.5393    0.3423 N   0  0  0  0  0  0  0  0  0  0  0  0
    2.2669    1.1147    0.4655 H   0  0  0  0  0  0  0  0  0  0  0  0
    2.2484   -1.1899   -0.0322 H   0  0  0  0  0  0  0  0  0  0  0  0
   -1.1288    1.3731   -0.2321 H   0  0  0  0  0  0  0  0  0  0  0  0
   -0.9319    0.1092   -1.5568 H   0  0  0  0  0  0  0  0  0  0  0  0
   -1.9520   -0.1096    1.2258 H   0  0  0  0  0  0  0  0  0  0  0  0
   -1.2144   -1.4638    0.4916 H   0  0  0  0  0  0  0  0  0  0  0  0
  1  2  2  3
  2  3  1  0
  2  4  1  0
  4  5  1  0
  1  6  1  0
  3  7  1  0
  4  8  1  0
  4  9  1  0
  5 10  1  0
  5 11  1  0
M  END
