
 OpenBabel11182308033D

 11 10  0  0  0  0  0  0  0  0999 V2000
   -0.9517   -0.8995    0.4760 N   0  0  0  0  0  0  0  0  0  0  0  0
   -0.4439    0.1201   -0.4004 C   0  0  1  0  0  0  0  0  0  0  0  0
   -0.9833    1.3482    0.0477 O   0  0  0  0  0  0  0  0  0  0  0  0
    1.0417    0.1951   -0.3016 C   0  0  0  0  0  0  0  0  0  0  0  0
    1.7637   -0.8556   -0.1542 N   0  0  0  0  0  0  0  0  0  0  0  0
   -1.7703   -0.5721    1.0170 H   0  0  0  0  0  0  0  0  0  0  0  0
   -1.2354   -1.7693   -0.0161 H   0  0  0  0  0  0  0  0  0  0  0  0
   -0.7515    0.0069   -1.4451 H   0  0  0  0  0  0  0  0  0  0  0  0
   -0.9509    2.0162   -0.6746 H   0  0  0  0  0  0  0  0  0  0  0  0
    1.5090    1.1784   -0.3583 H   0  0  0  0  0  0  0  0  0  0  0  0
    2.7726   -0.7684   -0.0904 H   0  0  0  0  0  0  0  0  0  0  0  0
  1  2  1  0  0  0  0
  1  6  1  0  0  0  0
  1  7  1  0  0  0  0
  2  3  1  0  0  0  0
  2  4  1  0  0  0  0
  2  8  1  6  0  0  0
  3  9  1  0  0  0  0
  4  5  2  0  0  0  0
  4 10  1  0  0  0  0
  5 11  1  0  0  0  0
M  END
$$$$
