
     RDKit          3D

 75 79  0  0  0  0  0  0  0  0999 V2000
   -9.2652    2.3425   -0.2461 C   0  0  0  0  0  0  0  0  0  0  0  0
   -8.2068    1.4348   -0.4340 O   0  0  0  0  0  0  0  0  0  0  0  0
   -8.1131    0.6564   -1.5794 C   0  0  0  0  0  0  0  0  0  0  0  0
   -9.0098    0.7973   -2.4359 O   0  0  0  0  0  0  0  0  0  0  0  0
   -6.9994   -0.2708   -1.7312 C   0  0  0  0  0  0  0  0  0  0  0  0
   -6.9125   -1.0491   -2.8907 C   0  0  0  0  0  0  0  0  0  0  0  0
   -5.8595   -1.9259   -3.0349 C   0  0  0  0  0  0  0  0  0  0  0  0
   -4.8804   -2.0577   -2.0609 C   0  0  0  0  0  0  0  0  0  0  0  0
   -4.9825   -1.2672   -0.9047 C   0  0  0  0  0  0  0  0  0  0  0  0
   -6.0348   -0.3960   -0.7621 C   0  0  0  0  0  0  0  0  0  0  0  0
   -3.8555   -1.6089   -0.0362 C   0  0  0  0  0  0  0  0  0  0  0  0
   -3.4945   -1.0511    1.0960 C   0  0  0  0  0  0  0  0  0  0  0  0
   -2.3380   -1.6145    1.7546 N   0  0  0  0  0  0  0  0  0  0  0  0
   -1.0176   -1.2099    1.5381 C   0  0  0  0  0  0  0  0  0  0  0  0
   -0.6598   -0.2276    0.6428 C   0  0  0  0  0  0  0  0  0  0  0  0
    0.6731    0.0987    0.5126 C   0  0  0  0  0  0  0  0  0  0  0  0
    1.6744   -0.5035    1.2294 C   0  0  0  0  0  0  0  0  0  0  0  0
    3.0668   -0.0991    1.0361 N   0  0  0  0  0  0  0  0  0  0  0  0
    3.3416    1.2510    1.3953 C   0  0  0  0  0  0  0  0  0  0  0  0
    3.9450   -1.0347    0.5428 C   0  0  0  0  0  0  0  0  0  0  0  0
    3.3454   -2.2142    0.3152 O   0  0  0  0  0  0  0  0  0  0  0  0
    5.3484   -1.0761    0.2054 C   0  0  0  0  0  0  0  0  0  0  0  0
    6.1035    0.0967    0.3939 N   0  0  0  0  0  4  0  0  0  0  0  0
    7.4837   -0.2317    0.7881 C   0  0  0  0  0  0  0  0  0  0  0  0
    8.3460   -0.6407   -0.3581 C   0  0  0  0  0  0  0  0  0  0  0  0
    8.3324    0.3251   -1.4406 N   0  0  0  0  0  4  0  0  0  0  0  0
    8.8473    1.6023   -0.9847 C   0  0  0  0  0  0  0  0  0  0  0  0
    6.9701    0.4072   -1.9009 C   0  0  0  0  0  0  0  0  0  0  0  0
    6.1067    0.9216   -0.7976 C   0  0  0  0  0  0  0  0  0  0  0  0
    1.3232   -1.4842    2.1239 C   0  0  0  0  0  0  0  0  0  0  0  0
   -0.0025   -1.8177    2.2619 C   0  0  0  0  0  0  0  0  0  0  0  0
   -4.1199    0.1401    1.5968 C   0  0  0  0  0  0  0  0  0  0  0  0
   -4.0196    1.3121    0.8325 C   0  0  0  0  0  0  0  0  0  0  0  0
   -4.5793    2.4815    1.2554 C   0  0  0  0  0  0  0  0  0  0  0  0
   -5.2596    2.5223    2.4573 C   0  0  0  0  0  0  0  0  0  0  0  0
   -5.3742    1.3773    3.2335 C   0  0  0  0  0  0  0  0  0  0  0  0
   -4.8019    0.2201    2.7821 C   0  0  0  0  0  0  0  0  0  0  0  0
   -3.0819   -2.6637   -0.7581 C   0  0  0  0  0  0  0  0  0  0  0  0
   -2.0441   -3.1997   -0.3070 O   0  0  0  0  0  0  0  0  0  0  0  0
   -3.7426   -2.9034   -1.9856 N   0  0  0  0  0  0  0  0  0  0  0  0
   -8.8658    3.3683   -0.4308 H   0  0  0  0  0  0  0  0  0  0  0  0
   -9.6220    2.2960    0.8166 H   0  0  0  0  0  0  0  0  0  0  0  0
  -10.0964    2.1673   -0.9551 H   0  0  0  0  0  0  0  0  0  0  0  0
   -7.6415   -0.9857   -3.6760 H   0  0  0  0  0  0  0  0  0  0  0  0
   -5.7521   -2.5541   -3.9231 H   0  0  0  0  0  0  0  0  0  0  0  0
   -6.1662    0.1755    0.1151 H   0  0  0  0  0  0  0  0  0  0  0  0
   -2.5409   -2.3863    2.4425 H   0  0  0  0  0  0  0  0  0  0  0  0
   -1.3854    0.2745    0.0568 H   0  0  0  0  0  0  0  0  0  0  0  0
    0.9743    0.8705   -0.1870 H   0  0  0  0  0  0  0  0  0  0  0  0
    3.8529    1.8535    0.6287 H   0  0  0  0  0  0  0  0  0  0  0  0
    3.9114    1.3115    2.3436 H   0  0  0  0  0  0  0  0  0  0  0  0
    2.3689    1.7974    1.6706 H   0  0  0  0  0  0  0  0  0  0  0  0
    5.8953   -1.9104    0.7560 H   0  0  0  0  0  0  0  0  0  0  0  0
    5.4075   -1.4467   -0.8640 H   0  0  0  0  0  0  0  0  0  0  0  0
    5.7291    0.6530    1.1824 H   0  0  0  0  0  0  0  0  0  0  0  0
    7.4019   -1.1194    1.4722 H   0  0  0  0  0  0  0  0  0  0  0  0
    7.8910    0.5913    1.3724 H   0  0  0  0  0  0  0  0  0  0  0  0
    9.4034   -0.6583    0.0172 H   0  0  0  0  0  0  0  0  0  0  0  0
    8.1312   -1.6404   -0.7393 H   0  0  0  0  0  0  0  0  0  0  0  0
    8.9226   -0.0260   -2.1997 H   0  0  0  0  0  0  0  0  0  0  0  0
    8.7872    2.3596   -1.7692 H   0  0  0  0  0  0  0  0  0  0  0  0
    9.9217    1.4543   -0.7246 H   0  0  0  0  0  0  0  0  0  0  0  0
    8.3079    1.9620   -0.0715 H   0  0  0  0  0  0  0  0  0  0  0  0
    6.9082    1.1311   -2.7430 H   0  0  0  0  0  0  0  0  0  0  0  0
    6.6559   -0.5887   -2.2113 H   0  0  0  0  0  0  0  0  0  0  0  0
    5.0478    0.8818   -1.1922 H   0  0  0  0  0  0  0  0  0  0  0  0
    6.3273    1.9784   -0.5492 H   0  0  0  0  0  0  0  0  0  0  0  0
    2.1041   -1.9608    2.6899 H   0  0  0  0  0  0  0  0  0  0  0  0
   -0.2378   -2.6098    2.9913 H   0  0  0  0  0  0  0  0  0  0  0  0
   -3.4940    1.3038   -0.1222 H   0  0  0  0  0  0  0  0  0  0  0  0
   -4.4737    3.3686    0.6211 H   0  0  0  0  0  0  0  0  0  0  0  0
   -5.7052    3.4546    2.7965 H   0  0  0  0  0  0  0  0  0  0  0  0
   -5.9213    1.4630    4.1741 H   0  0  0  0  0  0  0  0  0  0  0  0
   -4.8887   -0.6696    3.3822 H   0  0  0  0  0  0  0  0  0  0  0  0
   -3.4113   -3.5994   -2.6921 H   0  0  0  0  0  0  0  0  0  0  0  0
  1  2  1  0
  2  3  1  0
  3  4  2  0
  3  5  1  0
  5  6  2  0
  6  7  1  0
  7  8  2  0
  8  9  1  0
  9 10  2  0
  9 11  1  0
 11 12  2  0
 12 13  1  0
 13 14  1  0
 14 15  2  0
 15 16  1  0
 16 17  2  0
 17 18  1  0
 18 19  1  0
 18 20  1  0
 20 21  2  0
 20 22  1  0
 22 23  1  0
 23 24  1  0
 24 25  1  0
 25 26  1  0
 26 27  1  0
 26 28  1  0
 28 29  1  0
 17 30  1  0
 30 31  2  0
 12 32  1  0
 32 33  2  0
 33 34  1  0
 34 35  2  0
 35 36  1  0
 36 37  2  0
 11 38  1  0
 38 39  2  0
 38 40  1  0
 10  5  1  0
 31 14  1  0
 37 32  1  0
 40  8  1  0
 29 23  1  0
  1 41  1  0
  1 42  1  0
  1 43  1  0
  6 44  1  0
  7 45  1  0
 10 46  1  0
 13 47  1  0
 15 48  1  0
 16 49  1  0
 19 50  1  0
 19 51  1  0
 19 52  1  0
 22 53  1  0
 22 54  1  0
 23 55  1  0
 24 56  1  0
 24 57  1  0
 25 58  1  0
 25 59  1  0
 26 60  1  0
 27 61  1  0
 27 62  1  0
 27 63  1  0
 28 64  1  0
 28 65  1  0
 29 66  1  0
 29 67  1  0
 30 68  1  0
 31 69  1  0
 33 70  1  0
 34 71  1  0
 35 72  1  0
 36 73  1  0
 37 74  1  0
 40 75  1  0
M  CHG  2  23   1  26   1
M  END
