
 OpenBabel11172317513D

 74 78  0  0  0  0  0  0  0  0999 V2000
   10.1543    0.4311    1.1393 C   0  0  0  0  0  0  0  0  0  0  0  0
    8.8373    0.8694    1.4260 O   0  0  0  0  0  0  0  0  0  0  0  0
    7.7721    0.6742    0.5936 C   0  0  0  0  0  0  0  0  0  0  0  0
    7.9012    0.0869   -0.4837 O   0  0  0  0  0  0  0  0  0  0  0  0
    6.4537    1.1815    1.0051 C   0  0  0  0  0  0  0  0  0  0  0  0
    6.2862    1.8440    2.1964 C   0  0  0  0  0  0  0  0  0  0  0  0
    5.0531    2.3158    2.5657 C   0  0  0  0  0  0  0  0  0  0  0  0
    3.9329    2.1500    1.7699 C   0  0  0  0  0  0  0  0  0  0  0  0
    4.1133    1.4727    0.5616 C   0  0  0  0  0  0  0  0  0  0  0  0
    5.3466    1.0028    0.1901 C   0  0  0  0  0  0  0  0  0  0  0  0
    2.8294    1.4215   -0.1366 C   0  0  0  0  0  0  0  0  0  0  0  0
    2.5214    0.8202   -1.2495 C   0  0  0  0  0  0  0  0  0  0  0  0
    1.2030    0.9077   -1.7662 N   0  0  0  0  0  0  0  0  0  0  0  0
    0.1366    0.0735   -1.2999 C   0  0  0  0  0  0  0  0  0  0  0  0
   -1.0961    0.0819   -1.9218 C   0  0  0  0  0  0  0  0  0  0  0  0
   -2.0951   -0.7358   -1.4245 C   0  0  0  0  0  0  0  0  0  0  0  0
   -1.9575   -1.5610   -0.3533 C   0  0  0  0  0  0  0  0  0  0  0  0
   -2.9608   -2.4082    0.1854 N   0  0  0  0  0  0  0  0  0  0  0  0
   -2.7378   -3.8313    0.0879 C   0  0  0  0  0  0  0  0  0  0  0  0
   -4.1404   -1.9299    0.8013 C   0  0  0  0  0  0  0  0  0  0  0  0
   -4.9230   -2.7855    1.2759 O   0  0  0  0  0  0  0  0  0  0  0  0
   -4.3940   -0.5010    0.8591 C   0  0  0  0  0  0  0  0  0  0  0  0
   -5.6182   -0.0869    1.5128 N   0  3  0  0  0  0  0  0  0  0  0  0
   -5.7992    1.3061    1.1338 C   0  0  0  0  0  0  0  0  0  0  0  0
   -7.1658    1.8433    1.3683 C   0  0  0  0  0  0  0  0  0  0  0  0
   -8.1073    1.0349    0.6630 N   0  0  0  0  0  0  0  0  0  0  0  0
   -8.0035    1.0844   -0.7730 C   0  0  0  0  0  0  0  0  0  0  0  0
   -8.0665   -0.2865    1.1794 C   0  0  0  0  0  0  0  0  0  0  0  0
   -6.7010   -0.9426    1.1680 C   0  0  0  0  0  0  0  0  0  0  0  0
   -0.7018   -1.5673    0.2765 C   0  0  0  0  0  0  0  0  0  0  0  0
    0.2986   -0.7598   -0.2080 C   0  0  0  0  0  0  0  0  0  0  0  0
    3.4280   -0.0614   -1.9627 C   0  0  0  0  0  0  0  0  0  0  0  0
    3.7914   -1.2649   -1.3615 C   0  0  0  0  0  0  0  0  0  0  0  0
    4.6401   -2.1343   -1.9853 C   0  0  0  0  0  0  0  0  0  0  0  0
    5.1582   -1.8406   -3.2279 C   0  0  0  0  0  0  0  0  0  0  0  0
    4.7893   -0.6421   -3.8141 C   0  0  0  0  0  0  0  0  0  0  0  0
    3.9393    0.2303   -3.1907 C   0  0  0  0  0  0  0  0  0  0  0  0
    1.8842    2.1345    0.7660 C   0  0  0  0  0  0  0  0  0  0  0  0
    0.6745    2.3168    0.5305 O   0  0  0  0  0  0  0  0  0  0  0  0
    2.5791    2.5659    1.9179 N   0  0  0  0  0  0  0  0  0  0  0  0
   10.1916   -0.2260    0.2595 H   0  0  0  0  0  0  0  0  0  0  0  0
   10.7752    1.3502    0.9330 H   0  0  0  0  0  0  0  0  0  0  0  0
   10.6233   -0.0746    1.9955 H   0  0  0  0  0  0  0  0  0  0  0  0
    7.1652    1.9796    2.8331 H   0  0  0  0  0  0  0  0  0  0  0  0
    4.9280    2.8443    3.5182 H   0  0  0  0  0  0  0  0  0  0  0  0
    5.5639    0.5102   -0.7437 H   0  0  0  0  0  0  0  0  0  0  0  0
    0.9582    1.6067   -2.5301 H   0  0  0  0  0  0  0  0  0  0  0  0
   -1.2374    0.7219   -2.7666 H   0  0  0  0  0  0  0  0  0  0  0  0
   -3.0446   -0.7122   -1.9415 H   0  0  0  0  0  0  0  0  0  0  0  0
   -3.4629   -4.4287    0.6846 H   0  0  0  0  0  0  0  0  0  0  0  0
   -2.6970   -4.1953   -0.9605 H   0  0  0  0  0  0  0  0  0  0  0  0
   -1.7419   -4.0261    0.5572 H   0  0  0  0  0  0  0  0  0  0  0  0
   -4.5179   -0.1484   -0.2111 H   0  0  0  0  0  0  0  0  0  0  0  0
   -3.5652    0.0817    1.3437 H   0  0  0  0  0  0  0  0  0  0  0  0
   -5.4193   -0.0904    2.5548 H   0  0  0  0  0  0  0  0  0  0  0  0
   -5.5136    1.3824    0.0589 H   0  0  0  0  0  0  0  0  0  0  0  0
   -5.0486    1.8966    1.6978 H   0  0  0  0  0  0  0  0  0  0  0  0
   -7.4127    1.7871    2.4455 H   0  0  0  0  0  0  0  0  0  0  0  0
   -7.1863    2.8881    0.9886 H   0  0  0  0  0  0  0  0  0  0  0  0
   -7.0367    0.6679   -1.0847 H   0  0  0  0  0  0  0  0  0  0  0  0
   -8.1610    2.0669   -1.2131 H   0  0  0  0  0  0  0  0  0  0  0  0
   -8.8014    0.4099   -1.1946 H   0  0  0  0  0  0  0  0  0  0  0  0
   -8.5376   -0.3280    2.1924 H   0  0  0  0  0  0  0  0  0  0  0  0
   -8.7305   -0.9263    0.5266 H   0  0  0  0  0  0  0  0  0  0  0  0
   -6.7731   -1.7138    1.9995 H   0  0  0  0  0  0  0  0  0  0  0  0
   -6.5605   -1.5287    0.2385 H   0  0  0  0  0  0  0  0  0  0  0  0
   -0.5658   -2.2110    1.1262 H   0  0  0  0  0  0  0  0  0  0  0  0
    1.2618   -0.7703    0.2881 H   0  0  0  0  0  0  0  0  0  0  0  0
    3.4055   -1.5081   -0.4058 H   0  0  0  0  0  0  0  0  0  0  0  0
    4.9409   -3.0924   -1.5280 H   0  0  0  0  0  0  0  0  0  0  0  0
    5.8216   -2.5419   -3.6920 H   0  0  0  0  0  0  0  0  0  0  0  0
    5.2098   -0.4358   -4.7892 H   0  0  0  0  0  0  0  0  0  0  0  0
    3.6750    1.1645   -3.6896 H   0  0  0  0  0  0  0  0  0  0  0  0
    2.2378    3.0898    2.7553 H   0  0  0  0  0  0  0  0  0  0  0  0
  1  2  1  0  0  0  0
  1 41  1  0  0  0  0
  1 42  1  0  0  0  0
  1 43  1  0  0  0  0
  2  3  1  0  0  0  0
  3  4  2  0  0  0  0
  3  5  1  0  0  0  0
  5  6  2  0  0  0  0
  6  7  1  0  0  0  0
  6 44  1  0  0  0  0
  7  8  2  0  0  0  0
  7 45  1  0  0  0  0
  8  9  1  0  0  0  0
  9 10  2  0  0  0  0
  9 11  1  0  0  0  0
 10  5  1  0  0  0  0
 10 46  1  0  0  0  0
 11 12  2  0  0  0  0
 11 38  1  0  0  0  0
 12 13  1  0  0  0  0
 12 32  1  0  0  0  0
 13 14  1  0  0  0  0
 13 47  1  0  0  0  0
 14 15  2  0  0  0  0
 15 16  1  0  0  0  0
 15 48  1  0  0  0  0
 16 17  2  0  0  0  0
 16 49  1  0  0  0  0
 17 18  1  0  0  0  0
 17 30  1  0  0  0  0
 18 19  1  0  0  0  0
 18 20  1  0  0  0  0
 19 50  1  0  0  0  0
 19 51  1  0  0  0  0
 19 52  1  0  0  0  0
 20 21  2  0  0  0  0
 20 22  1  0  0  0  0
 22 23  1  0  0  0  0
 22 53  1  0  0  0  0
 22 54  1  0  0  0  0
 23 24  1  0  0  0  0
 23 55  1  0  0  0  0
 24 25  1  0  0  0  0
 24 56  1  0  0  0  0
 24 57  1  0  0  0  0
 25 26  1  0  0  0  0
 25 58  1  0  0  0  0
 25 59  1  0  0  0  0
 26 27  1  0  0  0  0
 26 28  1  0  0  0  0
 27 60  1  0  0  0  0
 27 61  1  0  0  0  0
 27 62  1  0  0  0  0
 28 29  1  0  0  0  0
 28 63  1  0  0  0  0
 28 64  1  0  0  0  0
 29 23  1  0  0  0  0
 29 65  1  0  0  0  0
 29 66  1  0  0  0  0
 30 31  2  0  0  0  0
 30 67  1  0  0  0  0
 31 14  1  0  0  0  0
 31 68  1  0  0  0  0
 32 33  2  0  0  0  0
 33 34  1  0  0  0  0
 33 69  1  0  0  0  0
 34 35  2  0  0  0  0
 34 70  1  0  0  0  0
 35 36  1  0  0  0  0
 35 71  1  0  0  0  0
 36 37  2  0  0  0  0
 36 72  1  0  0  0  0
 37 32  1  0  0  0  0
 37 73  1  0  0  0  0
 38 39  2  0  0  0  0
 38 40  1  0  0  0  0
 40  8  1  0  0  0  0
 40 74  1  0  0  0  0
M  CHG  1  23   1
M  END
$$$$
