
     RDKit          3D

 74 78  0  0  0  0  0  0  0  0999 V2000
    2.7585   -4.4722    0.5255 C   0  0  0  0  0  0  0  0  0  0  0  0
    1.7455   -3.6092    0.1889 C   0  0  0  0  0  0  0  0  0  0  0  0
    1.8987   -2.2459    0.3970 C   0  0  0  0  0  0  0  0  0  0  0  0
    3.0896   -1.7372    0.9528 C   0  0  0  0  0  0  0  0  0  0  0  0
    3.1875   -0.2859    1.1399 C   0  0  0  0  0  0  0  0  0  0  0  0
    4.3643    0.3408    1.7390 C   0  0  0  0  0  0  0  0  0  0  0  0
    4.6570   -0.1082    3.0963 C   0  0  0  0  0  0  0  0  0  0  0  0
    3.7387   -0.2408    4.1577 O   0  0  0  0  0  0  0  0  0  0  0  0
    5.9325   -0.3772    3.1862 N   0  0  0  0  0  0  0  0  0  0  0  0
    6.5858   -0.1603    1.9354 C   0  0  0  0  0  0  0  0  0  0  0  0
    7.8811   -0.2931    1.4855 C   0  0  0  0  0  0  0  0  0  0  0  0
    8.2472   -0.0288    0.1821 C   0  0  0  0  0  0  0  0  0  0  0  0
    7.3141    0.3882   -0.7458 C   0  0  0  0  0  0  0  0  0  0  0  0
    7.7091    0.6668   -2.1227 C   0  0  0  0  0  0  0  0  0  0  0  0
    6.8086    1.0424   -2.9162 O   0  0  0  0  0  0  0  0  0  0  0  0
    8.9904    0.5418   -2.5857 O   0  0  0  0  0  0  0  0  0  0  0  0
    9.3804    0.8115   -3.9233 C   0  0  0  0  0  0  0  0  0  0  0  0
    6.0195    0.5235   -0.3046 C   0  0  0  0  0  0  0  0  0  0  0  0
    5.6331    0.2590    1.0165 C   0  0  0  0  0  0  0  0  0  0  0  0
    2.2755    0.5105    0.8058 N   0  0  0  0  0  0  0  0  0  0  0  0
    1.0778    0.7339    0.2858 C   0  0  0  0  0  0  0  0  0  0  0  0
   -0.1091    0.7904    1.0448 C   0  0  0  0  0  0  0  0  0  0  0  0
   -1.3309    1.0330    0.4767 C   0  0  0  0  0  0  0  0  0  0  0  0
   -1.4408    1.2339   -0.8828 C   0  0  0  0  0  0  0  0  0  0  0  0
   -2.7116    1.4868   -1.4887 N   0  0  0  0  0  0  0  0  0  0  0  0
   -3.9077    1.5477   -0.7513 C   0  0  0  0  0  0  0  0  0  0  0  0
   -4.1262    2.5531    0.1792 O   0  0  0  0  0  0  0  0  0  0  0  0
   -4.8550    0.6474   -0.9265 C   0  0  0  0  0  0  0  0  0  0  0  0
   -6.0788    0.6938   -0.1849 N   0  0  0  0  0  0  0  0  0  0  0  0
   -7.0646    1.7280   -0.3911 C   0  0  0  0  0  0  0  0  0  0  0  0
   -8.3612    1.3221    0.2295 C   0  0  0  0  0  0  0  0  0  0  0  0
   -8.6669   -0.0799    0.0080 N   0  0  0  0  0  4  0  0  0  0  0  0
   -9.9314   -0.3319    0.6977 C   0  0  0  0  0  0  0  0  0  0  0  0
   -7.6821   -0.9564    0.5607 C   0  0  0  0  0  0  0  0  0  0  0  0
   -6.3506   -0.3229    0.8082 C   0  0  0  0  0  0  0  0  0  0  0  0
   -2.7554    1.6866   -2.9164 C   0  0  0  0  0  0  0  0  0  0  0  0
   -0.2888    1.1811   -1.6322 C   0  0  0  0  0  0  0  0  0  0  0  0
    0.9420    0.9422   -1.1005 C   0  0  0  0  0  0  0  0  0  0  0  0
    4.0720   -2.6359    1.2727 C   0  0  0  0  0  0  0  0  0  0  0  0
    3.9265   -3.9959    1.0683 C   0  0  0  0  0  0  0  0  0  0  0  0
    2.6549   -5.5478    0.3688 H   0  0  0  0  0  0  0  0  0  0  0  0
    0.8080   -3.9806   -0.2454 H   0  0  0  0  0  0  0  0  0  0  0  0
    1.0935   -1.5954    0.1285 H   0  0  0  0  0  0  0  0  0  0  0  0
    4.1299    1.5032    1.8230 H   0  0  0  0  0  0  0  0  0  0  0  0
    4.0538   -0.6881    5.0209 H   0  0  0  0  0  0  0  0  0  0  0  0
    8.6103   -0.6217    2.2222 H   0  0  0  0  0  0  0  0  0  0  0  0
    9.2742   -0.1439   -0.1367 H   0  0  0  0  0  0  0  0  0  0  0  0
   10.4632    1.0501   -3.9890 H   0  0  0  0  0  0  0  0  0  0  0  0
    9.1177    0.0104   -4.6162 H   0  0  0  0  0  0  0  0  0  0  0  0
    8.8543    1.7706   -4.2015 H   0  0  0  0  0  0  0  0  0  0  0  0
    5.2768    0.8480   -1.0136 H   0  0  0  0  0  0  0  0  0  0  0  0
    0.0177    0.6281    2.1065 H   0  0  0  0  0  0  0  0  0  0  0  0
   -2.2314    1.0695    1.1014 H   0  0  0  0  0  0  0  0  0  0  0  0
   -4.3706    2.3766    1.1273 H   0  0  0  0  0  0  0  0  0  0  0  0
   -4.7091   -0.1549   -1.6522 H   0  0  0  0  0  0  0  0  0  0  0  0
   -6.7589    2.7102    0.0131 H   0  0  0  0  0  0  0  0  0  0  0  0
   -7.2232    1.8733   -1.4782 H   0  0  0  0  0  0  0  0  0  0  0  0
   -9.1732    1.8905   -0.3122 H   0  0  0  0  0  0  0  0  0  0  0  0
   -8.4635    1.5733    1.2894 H   0  0  0  0  0  0  0  0  0  0  0  0
   -8.8301   -0.2831   -1.0036 H   0  0  0  0  0  0  0  0  0  0  0  0
   -9.7289   -0.1633    1.7956 H   0  0  0  0  0  0  0  0  0  0  0  0
  -10.2263   -1.3823    0.6020 H   0  0  0  0  0  0  0  0  0  0  0  0
  -10.7175    0.3973    0.4132 H   0  0  0  0  0  0  0  0  0  0  0  0
   -7.5199   -1.7951   -0.1763 H   0  0  0  0  0  0  0  0  0  0  0  0
   -8.0600   -1.4711    1.4780 H   0  0  0  0  0  0  0  0  0  0  0  0
   -6.3762    0.1341    1.8251 H   0  0  0  0  0  0  0  0  0  0  0  0
   -5.5549   -1.0986    0.7946 H   0  0  0  0  0  0  0  0  0  0  0  0
   -3.7653    1.8696   -3.2984 H   0  0  0  0  0  0  0  0  0  0  0  0
   -2.0177    2.4548   -3.2427 H   0  0  0  0  0  0  0  0  0  0  0  0
   -2.3943    0.7227   -3.3798 H   0  0  0  0  0  0  0  0  0  0  0  0
   -0.3773    1.3394   -2.7007 H   0  0  0  0  0  0  0  0  0  0  0  0
    1.8467    0.9055   -1.7232 H   0  0  0  0  0  0  0  0  0  0  0  0
    4.9891   -2.3150    1.6910 H   0  0  0  0  0  0  0  0  0  0  0  0
    4.7340   -4.6687    1.3382 H   0  0  0  0  0  0  0  0  0  0  0  0
  1  2  2  0
  2  3  1  0
  3  4  2  0
  4  5  1  0
  5  6  1  0
  6  7  1  0
  7  8  1  0
  7  9  2  0
  9 10  1  0
 10 11  2  0
 11 12  1  0
 12 13  2  0
 13 14  1  0
 14 15  2  0
 14 16  1  0
 16 17  1  0
 13 18  1  0
 18 19  2  0
  5 20  2  3
 20 21  1  0
 21 22  2  0
 22 23  1  0
 23 24  2  0
 24 25  1  0
 25 26  1  0
 26 27  1  0
 26 28  2  3
 28 29  1  0
 29 30  1  0
 30 31  1  0
 31 32  1  0
 32 33  1  0
 32 34  1  0
 34 35  1  0
 25 36  1  0
 24 37  1  0
 37 38  2  0
  4 39  1  0
 39 40  2  0
 40  1  1  0
 19  6  1  0
 38 21  1  0
 19 10  1  0
 35 29  1  0
  1 41  1  0
  2 42  1  0
  3 43  1  0
  6 44  1  0
  8 45  1  0
 11 46  1  0
 12 47  1  0
 17 48  1  0
 17 49  1  0
 17 50  1  0
 18 51  1  0
 22 52  1  0
 23 53  1  0
 27 54  1  0
 28 55  1  0
 30 56  1  0
 30 57  1  0
 31 58  1  0
 31 59  1  0
 32 60  1  0
 33 61  1  0
 33 62  1  0
 33 63  1  0
 34 64  1  0
 34 65  1  0
 35 66  1  0
 35 67  1  0
 36 68  1  0
 36 69  1  0
 36 70  1  0
 37 71  1  0
 38 72  1  0
 39 73  1  0
 40 74  1  0
M  CHG  1  32   1
M  END
