
 OpenBabel11172317513D

 74 78  0  0  0  0  0  0  0  0999 V2000
   -1.8308    2.4822   -3.3955 C   0  0  0  0  0  0  0  0  0  0  0  0
   -0.8881    1.8265   -2.6371 C   0  0  0  0  0  0  0  0  0  0  0  0
   -1.1302    1.5271   -1.2881 C   0  0  0  0  0  0  0  0  0  0  0  0
   -2.3174    1.8923   -0.7228 C   0  0  0  0  0  0  0  0  0  0  0  0
   -2.6057    1.6078    0.6891 C   0  0  0  0  0  0  0  0  0  0  0  0
   -3.9194    1.9348    1.3232 C   0  0  1  0  0  0  0  0  0  0  0  0
   -4.3367    3.3058    1.3009 C   0  0  0  0  0  0  0  0  0  0  0  0
   -3.6501    4.3366    1.4656 O   0  0  0  0  0  0  0  0  0  0  0  0
   -5.7416    3.3228    1.0467 N   0  0  0  0  0  0  0  0  0  0  0  0
   -6.1139    1.9850    0.7153 C   0  0  0  0  0  0  0  0  0  0  0  0
   -7.3051    1.4397    0.3000 C   0  0  0  0  0  0  0  0  0  0  0  0
   -7.3864    0.1117   -0.0564 C   0  0  0  0  0  0  0  0  0  0  0  0
   -6.2615   -0.6959   -0.0001 C   0  0  0  0  0  0  0  0  0  0  0  0
   -6.3181   -2.1056   -0.3733 C   0  0  0  0  0  0  0  0  0  0  0  0
   -5.3165   -2.8436   -0.3282 O   0  0  0  0  0  0  0  0  0  0  0  0
   -7.5154   -2.6842   -0.8000 O   0  0  0  0  0  0  0  0  0  0  0  0
   -7.5442   -4.0556   -1.1571 C   0  0  0  0  0  0  0  0  0  0  0  0
   -5.0565   -0.1898    0.4105 C   0  0  0  0  0  0  0  0  0  0  0  0
   -5.0033    1.1466    0.7644 C   0  0  0  0  0  0  0  0  0  0  0  0
   -1.7813    1.0693    1.4304 N   0  0  0  0  0  0  0  0  0  0  0  0
   -0.5658    0.5411    1.5846 C   0  0  0  0  0  0  0  0  0  0  0  0
    0.5371    1.3209    1.9348 C   0  0  0  0  0  0  0  0  0  0  0  0
    1.7580    0.7071    2.0906 C   0  0  0  0  0  0  0  0  0  0  0  0
    1.9649   -0.6448    1.9212 C   0  0  0  0  0  0  0  0  0  0  0  0
    3.2639   -1.2077    2.1006 N   0  0  0  0  0  0  0  0  0  0  0  0
    4.3396   -0.3583    2.4639 C   0  0  0  0  0  0  0  0  0  0  0  0
    4.2927    0.1365    3.7775 O   0  0  0  0  0  0  0  0  0  0  0  0
    5.3314   -0.0284    1.6662 C   0  0  0  0  0  0  0  0  0  0  0  0
    5.3436   -0.5456    0.3534 N   0  0  0  0  0  0  0  0  0  0  0  0
    6.2830   -1.6125    0.0675 C   0  0  0  0  0  0  0  0  0  0  0  0
    6.2820   -1.9025   -1.4170 C   0  0  0  0  0  0  0  0  0  0  0  0
    6.2520   -0.6622   -2.1230 N   0  3  2  0  0  0  0  0  0  0  0  0
    7.2980    0.1999   -1.6079 C   0  0  0  0  0  0  0  0  0  0  0  0
    4.9735   -0.0254   -2.0182 C   0  0  0  0  0  0  0  0  0  0  0  0
    4.4351    0.0110   -0.6121 C   0  0  0  0  0  0  0  0  0  0  0  0
    3.4284   -2.6206    1.9065 C   0  0  0  0  0  0  0  0  0  0  0  0
    0.8816   -1.4105    1.5775 C   0  0  0  0  0  0  0  0  0  0  0  0
   -0.3569   -0.8395    1.4113 C   0  0  0  0  0  0  0  0  0  0  0  0
   -3.2585    2.5589   -1.5188 C   0  0  0  0  0  0  0  0  0  0  0  0
   -3.0352    2.8603   -2.8471 C   0  0  0  0  0  0  0  0  0  0  0  0
   -1.6427    2.7181   -4.4541 H   0  0  0  0  0  0  0  0  0  0  0  0
    0.0496    1.5220   -3.0306 H   0  0  0  0  0  0  0  0  0  0  0  0
   -0.3721    1.0109   -0.7240 H   0  0  0  0  0  0  0  0  0  0  0  0
   -3.8778    1.6354    2.4252 H   0  0  0  0  0  0  0  0  0  0  0  0
   -6.4042    4.1202    1.0821 H   0  0  0  0  0  0  0  0  0  0  0  0
   -8.2032    2.0430    0.2445 H   0  0  0  0  0  0  0  0  0  0  0  0
   -8.3041   -0.3359   -0.3834 H   0  0  0  0  0  0  0  0  0  0  0  0
   -7.6543   -4.6963   -0.2518 H   0  0  0  0  0  0  0  0  0  0  0  0
   -8.4026   -4.2903   -1.8194 H   0  0  0  0  0  0  0  0  0  0  0  0
   -6.6366   -4.3632   -1.7187 H   0  0  0  0  0  0  0  0  0  0  0  0
   -4.1632   -0.8058    0.4618 H   0  0  0  0  0  0  0  0  0  0  0  0
    0.4822    2.3746    2.0887 H   0  0  0  0  0  0  0  0  0  0  0  0
    2.6339    1.3171    2.3673 H   0  0  0  0  0  0  0  0  0  0  0  0
    4.7626   -0.4295    4.4899 H   0  0  0  0  0  0  0  0  0  0  0  0
    6.1007    0.6222    2.0343 H   0  0  0  0  0  0  0  0  0  0  0  0
    5.9961   -2.5761    0.5641 H   0  0  0  0  0  0  0  0  0  0  0  0
    7.2995   -1.3836    0.4477 H   0  0  0  0  0  0  0  0  0  0  0  0
    5.3185   -2.4544   -1.6164 H   0  0  0  0  0  0  0  0  0  0  0  0
    7.1359   -2.5455   -1.6750 H   0  0  0  0  0  0  0  0  0  0  0  0
    6.4284   -0.8352   -3.1459 H   0  0  0  0  0  0  0  0  0  0  0  0
    7.6017    0.8569   -2.4638 H   0  0  0  0  0  0  0  0  0  0  0  0
    8.2090   -0.3962   -1.3562 H   0  0  0  0  0  0  0  0  0  0  0  0
    6.9556    0.8008   -0.7640 H   0  0  0  0  0  0  0  0  0  0  0  0
    4.2092   -0.4996   -2.6656 H   0  0  0  0  0  0  0  0  0  0  0  0
    5.0844    1.0393   -2.3552 H   0  0  0  0  0  0  0  0  0  0  0  0
    3.4892   -0.5911   -0.5380 H   0  0  0  0  0  0  0  0  0  0  0  0
    4.1858    1.0413   -0.2873 H   0  0  0  0  0  0  0  0  0  0  0  0
    4.3929   -3.0034    2.2973 H   0  0  0  0  0  0  0  0  0  0  0  0
    3.4002   -2.8915    0.8318 H   0  0  0  0  0  0  0  0  0  0  0  0
    2.6388   -3.1564    2.4943 H   0  0  0  0  0  0  0  0  0  0  0  0
    1.0263   -2.4885    1.4383 H   0  0  0  0  0  0  0  0  0  0  0  0
   -1.1838   -1.4957    1.1378 H   0  0  0  0  0  0  0  0  0  0  0  0
   -4.1982    2.8681   -1.1182 H   0  0  0  0  0  0  0  0  0  0  0  0
   -3.7839    3.3772   -3.4369 H   0  0  0  0  0  0  0  0  0  0  0  0
  1  2  2  0  0  0  0
  1 41  1  0  0  0  0
  2  3  1  0  0  0  0
  2 42  1  0  0  0  0
  3  4  2  0  0  0  0
  3 43  1  0  0  0  0
  4  5  1  0  0  0  0
  4 39  1  0  0  0  0
  5  6  1  0  0  0  0
  5 20  2  3  0  0  0
  6  7  1  0  0  0  0
  6 44  1  1  0  0  0
  7  8  2  0  0  0  0
  7  9  1  0  0  0  0
  9 10  1  0  0  0  0
  9 45  1  0  0  0  0
 10 11  2  0  0  0  0
 11 12  1  0  0  0  0
 11 46  1  0  0  0  0
 12 13  2  0  0  0  0
 12 47  1  0  0  0  0
 13 14  1  0  0  0  0
 13 18  1  0  0  0  0
 14 15  2  0  0  0  0
 14 16  1  0  0  0  0
 16 17  1  0  0  0  0
 17 48  1  0  0  0  0
 17 49  1  0  0  0  0
 17 50  1  0  0  0  0
 18 19  2  0  0  0  0
 18 51  1  0  0  0  0
 19  6  1  0  0  0  0
 19 10  1  0  0  0  0
 20 21  1  0  0  0  0
 21 22  2  0  0  0  0
 22 23  1  0  0  0  0
 22 52  1  0  0  0  0
 23 24  2  0  0  0  0
 23 53  1  0  0  0  0
 24 25  1  0  0  0  0
 24 37  1  0  0  0  0
 25 26  1  0  0  0  0
 25 36  1  0  0  0  0
 26 27  1  0  0  0  0
 26 28  2  3  0  0  0
 27 54  1  0  0  0  0
 28 29  1  0  0  0  0
 28 55  1  0  0  0  0
 29 30  1  0  0  0  0
 30 31  1  0  0  0  0
 30 56  1  0  0  0  0
 30 57  1  0  0  0  0
 31 32  1  0  0  0  0
 31 58  1  0  0  0  0
 31 59  1  0  0  0  0
 32 33  1  0  0  0  0
 32 34  1  0  0  0  0
 32 60  1  6  0  0  0
 33 61  1  0  0  0  0
 33 62  1  0  0  0  0
 33 63  1  0  0  0  0
 34 35  1  0  0  0  0
 34 64  1  0  0  0  0
 34 65  1  0  0  0  0
 35 29  1  0  0  0  0
 35 66  1  0  0  0  0
 35 67  1  0  0  0  0
 36 68  1  0  0  0  0
 36 69  1  0  0  0  0
 36 70  1  0  0  0  0
 37 38  2  0  0  0  0
 37 71  1  0  0  0  0
 38 21  1  0  0  0  0
 38 72  1  0  0  0  0
 39 40  2  0  0  0  0
 39 73  1  0  0  0  0
 40  1  1  0  0  0  0
 40 74  1  0  0  0  0
M  CHG  1  32   1
M  END
$$$$
