
 OpenBabel11172317513D

 74 78  0  0  0  0  0  0  0  0999 V2000
    1.7933   -5.2765    0.7507 C   0  0  0  0  0  0  0  0  0  0  0  0
    2.5431   -4.8069    1.8034 C   0  0  0  0  0  0  0  0  0  0  0  0
    3.1221   -3.5465    1.7366 C   0  0  0  0  0  0  0  0  0  0  0  0
    2.9916   -2.7116    0.6491 C   0  0  0  0  0  0  0  0  0  0  0  0
    3.6757   -1.4474    0.4643 C   0  0  0  0  0  0  0  0  0  0  0  0
    5.0954   -1.3294    0.8233 C   0  0  0  0  0  0  0  0  0  0  0  0
    5.9824   -2.2457    1.3069 C   0  0  0  0  0  0  0  0  0  0  0  0
    5.7923   -3.6069    1.5166 O   0  0  0  0  0  0  0  0  0  0  0  0
    7.1856   -1.6267    1.5786 N   0  0  0  0  0  0  0  0  0  0  0  0
    7.0544   -0.3315    1.2639 C   0  0  0  0  0  0  0  0  0  0  0  0
    7.9539    0.7392    1.3386 C   0  0  0  0  0  0  0  0  0  0  0  0
    7.5497    1.9951    0.9416 C   0  0  0  0  0  0  0  0  0  0  0  0
    6.2936    2.2474    0.4715 C   0  0  0  0  0  0  0  0  0  0  0  0
    5.8367    3.5584    0.0459 C   0  0  0  0  0  0  0  0  0  0  0  0
    4.6772    3.7617   -0.3792 O   0  0  0  0  0  0  0  0  0  0  0  0
    6.6947    4.6627    0.0975 O   0  0  0  0  0  0  0  0  0  0  0  0
    6.3188    5.9664   -0.3010 C   0  0  0  0  0  0  0  0  0  0  0  0
    5.4104    1.1630    0.4053 C   0  0  0  0  0  0  0  0  0  0  0  0
    5.7824   -0.1010    0.7934 C   0  0  0  0  0  0  0  0  0  0  0  0
    3.0653   -0.4267   -0.0337 N   0  0  0  0  0  0  0  0  0  0  0  0
    1.7425   -0.3820   -0.4407 C   0  0  0  0  0  0  0  0  0  0  0  0
    1.4051    0.0935   -1.7159 C   0  0  0  0  0  0  0  0  0  0  0  0
    0.1100    0.1696   -2.1572 C   0  0  0  0  0  0  0  0  0  0  0  0
   -0.9376   -0.2333   -1.3320 C   0  0  0  0  0  0  0  0  0  0  0  0
   -2.2828   -0.1776   -1.7805 N   0  0  0  0  0  0  0  0  0  0  0  0
   -3.3330    0.3403   -0.9881 C   0  0  0  0  0  0  0  0  0  0  0  0
   -3.1512    0.7771    0.1632 O   0  0  0  0  0  0  0  0  0  0  0  0
   -4.6807    0.3605   -1.5470 C   0  0  0  0  0  0  0  0  0  0  0  0
   -5.7096    0.8955   -0.6929 N   0  0  0  0  0  0  0  0  0  0  0  0
   -5.9995    0.0724    0.4396 C   0  0  0  0  0  0  0  0  0  0  0  0
   -7.0034    0.8017    1.3066 C   0  0  0  0  0  0  0  0  0  0  0  0
   -8.2595    0.9599    0.6009 N   0  3  1  0  0  0  0  0  0  0  0  0
   -9.0871    1.8502    1.3949 C   0  0  0  0  0  0  0  0  0  0  0  0
   -8.0671    1.5938   -0.6895 C   0  0  0  0  0  0  0  0  0  0  0  0
   -6.9553    0.9988   -1.4768 C   0  0  0  0  0  0  0  0  0  0  0  0
   -2.6323   -0.6726   -3.1219 C   0  0  0  0  0  0  0  0  0  0  0  0
   -0.6157   -0.6994   -0.0833 C   0  0  0  0  0  0  0  0  0  0  0  0
    0.7098   -0.7749    0.3625 C   0  0  0  0  0  0  0  0  0  0  0  0
    2.2323   -3.2060   -0.3965 C   0  0  0  0  0  0  0  0  0  0  0  0
    1.6418   -4.4766   -0.3388 C   0  0  0  0  0  0  0  0  0  0  0  0
    1.3394   -6.2665    0.8056 H   0  0  0  0  0  0  0  0  0  0  0  0
    2.6865   -5.4243    2.6988 H   0  0  0  0  0  0  0  0  0  0  0  0
    3.6573   -3.1700    2.6094 H   0  0  0  0  0  0  0  0  0  0  0  0
    6.1599   -4.0387    2.3729 H   0  0  0  0  0  0  0  0  0  0  0  0
    8.0329   -2.1008    1.9587 H   0  0  0  0  0  0  0  0  0  0  0  0
    8.9427    0.5287    1.7108 H   0  0  0  0  0  0  0  0  0  0  0  0
    8.2416    2.8359    0.9952 H   0  0  0  0  0  0  0  0  0  0  0  0
    7.1360    6.6417    0.0903 H   0  0  0  0  0  0  0  0  0  0  0  0
    5.3928    6.3262    0.1592 H   0  0  0  0  0  0  0  0  0  0  0  0
    6.3427    6.0942   -1.4011 H   0  0  0  0  0  0  0  0  0  0  0  0
    4.4220    1.3570    0.0365 H   0  0  0  0  0  0  0  0  0  0  0  0
    2.2055    0.4075   -2.3581 H   0  0  0  0  0  0  0  0  0  0  0  0
   -0.1410    0.5390   -3.1457 H   0  0  0  0  0  0  0  0  0  0  0  0
   -4.6758    1.0053   -2.4705 H   0  0  0  0  0  0  0  0  0  0  0  0
   -5.0142   -0.6739   -1.8537 H   0  0  0  0  0  0  0  0  0  0  0  0
   -6.5477   -0.8384    0.0621 H   0  0  0  0  0  0  0  0  0  0  0  0
   -5.1142   -0.1863    1.0481 H   0  0  0  0  0  0  0  0  0  0  0  0
   -7.2507    0.1734    2.2082 H   0  0  0  0  0  0  0  0  0  0  0  0
   -6.5881    1.7452    1.6820 H   0  0  0  0  0  0  0  0  0  0  0  0
   -8.7138    0.0259    0.5042 H   0  0  0  0  0  0  0  0  0  0  0  0
   -8.4588    2.6131    1.8907 H   0  0  0  0  0  0  0  0  0  0  0  0
   -9.6673    1.2785    2.1549 H   0  0  0  0  0  0  0  0  0  0  0  0
   -9.7629    2.3878    0.6875 H   0  0  0  0  0  0  0  0  0  0  0  0
   -7.9711    2.6925   -0.5847 H   0  0  0  0  0  0  0  0  0  0  0  0
   -9.0086    1.4279   -1.2798 H   0  0  0  0  0  0  0  0  0  0  0  0
   -6.7071    1.7026   -2.3150 H   0  0  0  0  0  0  0  0  0  0  0  0
   -7.2227    0.0129   -1.8962 H   0  0  0  0  0  0  0  0  0  0  0  0
   -3.1987    0.1100   -3.6802 H   0  0  0  0  0  0  0  0  0  0  0  0
   -1.7498   -1.0488   -3.6359 H   0  0  0  0  0  0  0  0  0  0  0  0
   -3.3775   -1.4849   -2.9395 H   0  0  0  0  0  0  0  0  0  0  0  0
   -1.4080   -1.0130    0.5669 H   0  0  0  0  0  0  0  0  0  0  0  0
    0.9038   -1.1530    1.3665 H   0  0  0  0  0  0  0  0  0  0  0  0
    2.1173   -2.6060   -1.2838 H   0  0  0  0  0  0  0  0  0  0  0  0
    1.0521   -4.8288   -1.1820 H   0  0  0  0  0  0  0  0  0  0  0  0
  1  2  2  0  0  0  0
  1 41  1  0  0  0  0
  2  3  1  0  0  0  0
  2 42  1  0  0  0  0
  3  4  2  0  0  0  0
  3 43  1  0  0  0  0
  4  5  1  0  0  0  0
  4 39  1  0  0  0  0
  5  6  1  0  0  0  0
  5 20  2  3  0  0  0
  6  7  2  0  0  0  0
  7  8  1  0  0  0  0
  7  9  1  0  0  0  0
  8 44  1  0  0  0  0
  9 10  1  0  0  0  0
  9 45  1  0  0  0  0
 10 11  2  0  0  0  0
 11 12  1  0  0  0  0
 11 46  1  0  0  0  0
 12 13  2  0  0  0  0
 12 47  1  0  0  0  0
 13 14  1  0  0  0  0
 13 18  1  0  0  0  0
 14 15  2  0  0  0  0
 14 16  1  0  0  0  0
 16 17  1  0  0  0  0
 17 48  1  0  0  0  0
 17 49  1  0  0  0  0
 17 50  1  0  0  0  0
 18 19  2  0  0  0  0
 18 51  1  0  0  0  0
 19  6  1  0  0  0  0
 19 10  1  0  0  0  0
 20 21  1  0  0  0  0
 21 22  2  0  0  0  0
 22 23  1  0  0  0  0
 22 52  1  0  0  0  0
 23 24  2  0  0  0  0
 23 53  1  0  0  0  0
 24 25  1  0  0  0  0
 24 37  1  0  0  0  0
 25 26  1  0  0  0  0
 25 36  1  0  0  0  0
 26 27  2  0  0  0  0
 26 28  1  0  0  0  0
 28 29  1  0  0  0  0
 28 54  1  0  0  0  0
 28 55  1  0  0  0  0
 29 30  1  0  0  0  0
 30 31  1  0  0  0  0
 30 56  1  0  0  0  0
 30 57  1  0  0  0  0
 31 32  1  0  0  0  0
 31 58  1  0  0  0  0
 31 59  1  0  0  0  0
 32 33  1  0  0  0  0
 32 34  1  0  0  0  0
 32 60  1  6  0  0  0
 33 61  1  0  0  0  0
 33 62  1  0  0  0  0
 33 63  1  0  0  0  0
 34 35  1  0  0  0  0
 34 64  1  0  0  0  0
 34 65  1  0  0  0  0
 35 29  1  0  0  0  0
 35 66  1  0  0  0  0
 35 67  1  0  0  0  0
 36 68  1  0  0  0  0
 36 69  1  0  0  0  0
 36 70  1  0  0  0  0
 37 38  2  0  0  0  0
 37 71  1  0  0  0  0
 38 21  1  0  0  0  0
 38 72  1  0  0  0  0
 39 40  2  0  0  0  0
 39 73  1  0  0  0  0
 40  1  1  0  0  0  0
 40 74  1  0  0  0  0
M  CHG  1  32   1
M  END
$$$$
