
 OpenBabel11172317513D

 74 78  0  0  0  0  0  0  0  0999 V2000
    5.4301   -2.8999   -2.6893 C   0  0  0  0  0  0  0  0  0  0  0  0
    4.5259   -3.3029   -1.7366 C   0  0  0  0  0  0  0  0  0  0  0  0
    3.8443   -2.3569   -1.0334 C   0  0  0  0  0  0  0  0  0  0  0  0
    4.0271   -0.9605   -1.2328 C   0  0  0  0  0  0  0  0  0  0  0  0
    3.1894   -0.0413   -0.4784 C   0  0  0  0  0  0  0  0  0  0  0  0
    3.6325    1.2928    0.0465 C   0  0  0  0  0  0  0  0  0  0  0  0
    2.7338    2.1835    0.5349 C   0  0  0  0  0  0  0  0  0  0  0  0
    1.3534    2.0267    0.6289 O   0  0  0  0  0  0  0  0  0  0  0  0
    3.4578    3.3235    0.9336 N   0  0  0  0  0  0  0  0  0  0  0  0
    4.7111    3.1428    0.7127 C   0  0  0  0  0  0  0  0  0  0  0  0
    5.7880    3.9767    0.9368 C   0  0  0  0  0  0  0  0  0  0  0  0
    7.0546    3.5663    0.6399 C   0  0  0  0  0  0  0  0  0  0  0  0
    7.2761    2.2712    0.1027 C   0  0  0  0  0  0  0  0  0  0  0  0
    8.4819    1.9646   -0.1554 C   0  0  0  0  0  0  0  0  0  0  0  0
    9.5792    2.7309    0.0020 O   0  0  0  0  0  0  0  0  0  0  0  0
    8.7535    0.6498   -0.6737 O   0  0  0  0  0  0  0  0  0  0  0  0
    9.3119   -0.2927    0.2307 C   0  0  0  0  0  0  0  0  0  0  0  0
    6.2090    1.4564   -0.1200 C   0  0  0  0  0  0  0  0  0  0  0  0
    4.9228    1.8682    0.1586 C   0  0  0  0  0  0  0  0  0  0  0  0
    2.0727   -0.2838   -0.1827 N   0  0  0  0  0  0  0  0  0  0  0  0
    0.8558   -0.7303    0.0448 C   0  0  0  0  0  0  0  0  0  0  0  0
   -0.1890   -0.5987   -0.8910 C   0  0  0  0  0  0  0  0  0  0  0  0
   -1.5018   -0.8302   -0.6434 C   0  0  0  0  0  0  0  0  0  0  0  0
   -1.8818   -1.2297    0.6054 C   0  0  0  0  0  0  0  0  0  0  0  0
   -3.2492   -1.3112    0.9776 N   0  0  0  0  0  0  0  0  0  0  0  0
   -4.2851   -1.4909    0.0580 C   0  0  0  0  0  0  0  0  0  0  0  0
   -4.1343   -1.6262   -1.1488 O   0  0  0  0  0  0  0  0  0  0  0  0
   -5.6843   -1.5032    0.5823 C   0  0  0  0  0  0  0  0  0  0  0  0
   -6.6623   -1.5537   -0.4752 N   0  0  0  0  0  0  0  0  0  0  0  0
   -8.0065   -1.7492    0.0599 C   0  0  0  0  0  0  0  0  0  0  0  0
   -8.8349   -0.5097    0.1147 C   0  0  0  0  0  0  0  0  0  0  0  0
   -8.1179    0.6429    0.5436 N   0  3  2  0  0  0  0  0  0  0  0  0
   -9.0328    1.7722    0.4933 C   0  0  0  0  0  0  0  0  0  0  0  0
   -6.9239    0.9044   -0.2091 C   0  0  0  0  0  0  0  0  0  0  0  0
   -6.6872   -0.2678   -1.1741 C   0  0  0  0  0  0  0  0  0  0  0  0
   -3.5619   -1.0662    2.3953 C   0  0  0  0  0  0  0  0  0  0  0  0
   -0.8762   -1.3898    1.5773 C   0  0  0  0  0  0  0  0  0  0  0  0
    0.4520   -1.1604    1.3387 C   0  0  0  0  0  0  0  0  0  0  0  0
    4.9414   -0.6318   -2.1995 C   0  0  0  0  0  0  0  0  0  0  0  0
    5.6317   -1.5501   -2.9171 C   0  0  0  0  0  0  0  0  0  0  0  0
    5.9885   -3.6226   -3.2492 H   0  0  0  0  0  0  0  0  0  0  0  0
    4.3656   -4.3773   -1.5632 H   0  0  0  0  0  0  0  0  0  0  0  0
    3.1316   -2.6399   -0.2925 H   0  0  0  0  0  0  0  0  0  0  0  0
    0.8968    1.7214    1.5017 H   0  0  0  0  0  0  0  0  0  0  0  0
    5.5514    4.9718    1.3643 H   0  0  0  0  0  0  0  0  0  0  0  0
    7.8648    4.2442    0.8219 H   0  0  0  0  0  0  0  0  0  0  0  0
    9.8346    3.5812   -0.5223 H   0  0  0  0  0  0  0  0  0  0  0  0
   10.2693    0.1874    0.5859 H   0  0  0  0  0  0  0  0  0  0  0  0
    8.6994   -0.4621    1.1125 H   0  0  0  0  0  0  0  0  0  0  0  0
    9.6054   -1.2225   -0.2518 H   0  0  0  0  0  0  0  0  0  0  0  0
    6.3262    0.4652   -0.4640 H   0  0  0  0  0  0  0  0  0  0  0  0
    0.0829   -0.2877   -1.8857 H   0  0  0  0  0  0  0  0  0  0  0  0
   -2.2297   -0.6891   -1.4381 H   0  0  0  0  0  0  0  0  0  0  0  0
   -5.9113   -0.6868    1.2702 H   0  0  0  0  0  0  0  0  0  0  0  0
   -5.8231   -2.4455    1.2177 H   0  0  0  0  0  0  0  0  0  0  0  0
   -8.5376   -2.4641   -0.6606 H   0  0  0  0  0  0  0  0  0  0  0  0
   -7.9971   -2.2314    1.0786 H   0  0  0  0  0  0  0  0  0  0  0  0
   -9.6577   -0.7154    0.8436 H   0  0  0  0  0  0  0  0  0  0  0  0
   -9.2721   -0.3436   -0.8839 H   0  0  0  0  0  0  0  0  0  0  0  0
   -7.8354    0.4903    1.5605 H   0  0  0  0  0  0  0  0  0  0  0  0
   -8.5467    2.7423    0.6418 H   0  0  0  0  0  0  0  0  0  0  0  0
   -9.5888    1.7069   -0.4396 H   0  0  0  0  0  0  0  0  0  0  0  0
   -9.7929    1.5785    1.3176 H   0  0  0  0  0  0  0  0  0  0  0  0
   -6.0199    1.1081    0.4049 H   0  0  0  0  0  0  0  0  0  0  0  0
   -7.0859    1.8192   -0.8626 H   0  0  0  0  0  0  0  0  0  0  0  0
   -7.5203   -0.2628   -1.8907 H   0  0  0  0  0  0  0  0  0  0  0  0
   -5.7446   -0.0429   -1.7082 H   0  0  0  0  0  0  0  0  0  0  0  0
   -4.2803   -0.1833    2.3189 H   0  0  0  0  0  0  0  0  0  0  0  0
   -2.7185   -0.6942    2.9690 H   0  0  0  0  0  0  0  0  0  0  0  0
   -4.1030   -1.9191    2.7703 H   0  0  0  0  0  0  0  0  0  0  0  0
   -1.2078   -1.7398    2.5564 H   0  0  0  0  0  0  0  0  0  0  0  0
    1.2114   -1.2781    2.1016 H   0  0  0  0  0  0  0  0  0  0  0  0
    5.0826    0.4622   -2.4211 H   0  0  0  0  0  0  0  0  0  0  0  0
    6.3554   -1.2064   -3.6615 H   0  0  0  0  0  0  0  0  0  0  0  0
  1  2  2  0  0  0  0
  1 41  1  0  0  0  0
  2  3  1  0  0  0  0
  2 42  1  0  0  0  0
  3  4  2  0  0  0  0
  3 43  1  0  0  0  0
  4  5  1  0  0  0  0
  4 39  1  0  0  0  0
  5  6  1  0  0  0  0
  5 20  2  3  0  0  0
  6  7  2  0  0  0  0
  7  8  1  0  0  0  0
  7  9  1  0  0  0  0
  8 44  1  0  0  0  0
  9 10  2  0  0  0  0
 10 11  1  0  0  0  0
 11 12  2  0  0  0  0
 11 45  1  0  0  0  0
 12 13  1  0  0  0  0
 12 46  1  0  0  0  0
 13 14  2  3  0  0  0
 13 18  1  0  0  0  0
 14 15  1  0  0  0  0
 14 16  1  0  0  0  0
 15 47  1  0  0  0  0
 16 17  1  0  0  0  0
 17 48  1  0  0  0  0
 17 49  1  0  0  0  0
 17 50  1  0  0  0  0
 18 19  2  0  0  0  0
 18 51  1  0  0  0  0
 19  6  1  0  0  0  0
 19 10  1  0  0  0  0
 20 21  1  0  0  0  0
 21 22  2  0  0  0  0
 22 23  1  0  0  0  0
 22 52  1  0  0  0  0
 23 24  2  0  0  0  0
 23 53  1  0  0  0  0
 24 25  1  0  0  0  0
 24 37  1  0  0  0  0
 25 26  1  0  0  0  0
 25 36  1  0  0  0  0
 26 27  2  0  0  0  0
 26 28  1  0  0  0  0
 28 29  1  0  0  0  0
 28 54  1  0  0  0  0
 28 55  1  0  0  0  0
 29 30  1  0  0  0  0
 30 31  1  0  0  0  0
 30 56  1  0  0  0  0
 30 57  1  0  0  0  0
 31 32  1  0  0  0  0
 31 58  1  0  0  0  0
 31 59  1  0  0  0  0
 32 33  1  0  0  0  0
 32 34  1  0  0  0  0
 32 60  1  1  0  0  0
 33 61  1  0  0  0  0
 33 62  1  0  0  0  0
 33 63  1  0  0  0  0
 34 35  1  0  0  0  0
 34 64  1  0  0  0  0
 34 65  1  0  0  0  0
 35 29  1  0  0  0  0
 35 66  1  0  0  0  0
 35 67  1  0  0  0  0
 36 68  1  0  0  0  0
 36 69  1  0  0  0  0
 36 70  1  0  0  0  0
 37 38  2  0  0  0  0
 37 71  1  0  0  0  0
 38 21  1  0  0  0  0
 38 72  1  0  0  0  0
 39 40  2  0  0  0  0
 39 73  1  0  0  0  0
 40  1  1  0  0  0  0
 40 74  1  0  0  0  0
M  CHG  1  32   1
M  END
$$$$
