
     RDKit          3D

 74 78  0  0  0  0  0  0  0  0999 V2000
   -6.0333   -3.4330   -0.1466 C   0  0  0  0  0  0  0  0  0  0  0  0
   -4.9635   -3.6668   -0.9846 C   0  0  0  0  0  0  0  0  0  0  0  0
   -3.8851   -2.8128   -0.9815 C   0  0  0  0  0  0  0  0  0  0  0  0
   -3.8076   -1.6895   -0.1553 C   0  0  0  0  0  0  0  0  0  0  0  0
   -2.5823   -0.8797   -0.0410 C   0  0  0  0  0  0  0  0  0  0  0  0
   -2.5701    0.5479    0.1500 C   0  0  0  0  0  0  0  0  0  0  0  0
   -1.4745    1.2602    0.4666 C   0  0  0  0  0  0  0  0  0  0  0  0
   -0.2097    0.7295    0.6666 O   0  0  0  0  0  0  0  0  0  0  0  0
   -1.8414    2.6260    0.5452 N   0  0  0  0  0  0  0  0  0  0  0  0
   -3.0614    2.8152    0.2980 C   0  0  0  0  0  0  0  0  0  0  0  0
   -3.9533    3.9753    0.2259 C   0  0  0  0  0  0  0  0  0  0  0  0
   -5.2233    3.8931   -0.0883 C   0  0  0  0  0  0  0  0  0  0  0  0
   -5.8394    2.6147   -0.4010 C   0  0  0  0  0  0  0  0  0  0  0  0
   -7.0768    2.3726    0.3891 C   0  0  0  0  0  0  0  0  0  0  0  0
   -7.1199    1.3775    1.1351 O   0  0  0  0  0  0  0  0  0  0  0  0
   -8.1283    3.2236    0.2909 O   0  0  0  0  0  0  0  0  0  0  0  0
   -9.3527    3.0532    1.0226 C   0  0  0  0  0  0  0  0  0  0  0  0
   -4.9378    1.4654   -0.3848 C   0  0  0  0  0  0  0  0  0  0  0  0
   -3.6924    1.5034    0.0064 C   0  0  0  0  0  0  0  0  0  0  0  0
   -1.5671   -1.5640   -0.3325 N   0  0  0  0  0  0  0  0  0  0  0  0
   -0.2766   -1.7210   -0.5005 C   0  0  0  0  0  0  0  0  0  0  0  0
    0.5081   -2.3366    0.4845 C   0  0  0  0  0  0  0  0  0  0  0  0
    1.8508   -2.5002    0.2725 C   0  0  0  0  0  0  0  0  0  0  0  0
    2.4903   -2.0869   -0.8757 C   0  0  0  0  0  0  0  0  0  0  0  0
    3.9034   -2.2904   -1.0264 N   0  0  0  0  0  0  0  0  0  0  0  0
    4.6020   -2.9134    0.0200 C   0  0  0  0  0  0  0  0  0  0  0  0
    4.3881   -4.2466    0.2899 O   0  0  0  0  0  0  0  0  0  0  0  0
    5.4589   -2.2360    0.7453 C   0  0  0  0  0  0  0  0  0  0  0  0
    5.6660   -0.8556    0.4491 N   0  0  0  0  0  0  0  0  0  0  0  0
    7.0032   -0.4490    0.0646 C   0  0  0  0  0  0  0  0  0  0  0  0
    6.9376    1.0412   -0.2434 C   0  0  0  0  0  0  0  0  0  0  0  0
    6.4151    1.7762    0.8977 N   0  0  0  0  0  4  0  0  0  0  0  0
    6.4423    3.1834    0.5776 C   0  0  0  0  0  0  0  0  0  0  0  0
    5.1336    1.2997    1.3185 C   0  0  0  0  0  0  0  0  0  0  0  0
    4.6227    0.1219    0.5169 C   0  0  0  0  0  0  0  0  0  0  0  0
    4.5248   -1.8466   -2.2374 C   0  0  0  0  0  0  0  0  0  0  0  0
    1.7413   -1.4832   -1.8509 C   0  0  0  0  0  0  0  0  0  0  0  0
    0.3967   -1.3074   -1.6644 C   0  0  0  0  0  0  0  0  0  0  0  0
   -4.8904   -1.4919    0.6644 C   0  0  0  0  0  0  0  0  0  0  0  0
   -5.9779   -2.3404    0.6705 C   0  0  0  0  0  0  0  0  0  0  0  0
   -6.8934   -4.1202   -0.1544 H   0  0  0  0  0  0  0  0  0  0  0  0
   -4.9997   -4.5292   -1.6336 H   0  0  0  0  0  0  0  0  0  0  0  0
   -3.0308   -2.9732   -1.6302 H   0  0  0  0  0  0  0  0  0  0  0  0
    0.6388    1.2370    0.5988 H   0  0  0  0  0  0  0  0  0  0  0  0
   -3.4716    4.9401    0.4590 H   0  0  0  0  0  0  0  0  0  0  0  0
   -5.8100    4.8330   -0.1072 H   0  0  0  0  0  0  0  0  0  0  0  0
   -6.2040    2.7084   -1.4829 H   0  0  0  0  0  0  0  0  0  0  0  0
   -9.5271    1.9813    1.2150 H   0  0  0  0  0  0  0  0  0  0  0  0
  -10.2124    3.4213    0.4163 H   0  0  0  0  0  0  0  0  0  0  0  0
   -9.2452    3.6578    1.9457 H   0  0  0  0  0  0  0  0  0  0  0  0
   -5.3061    0.5279   -0.7707 H   0  0  0  0  0  0  0  0  0  0  0  0
    0.0415   -2.6820    1.4155 H   0  0  0  0  0  0  0  0  0  0  0  0
    2.4485   -2.9868    1.0601 H   0  0  0  0  0  0  0  0  0  0  0  0
    4.2270   -4.6300    1.2101 H   0  0  0  0  0  0  0  0  0  0  0  0
    6.0157   -2.7143    1.5723 H   0  0  0  0  0  0  0  0  0  0  0  0
    7.3629   -0.9590   -0.8513 H   0  0  0  0  0  0  0  0  0  0  0  0
    7.7015   -0.5684    0.9148 H   0  0  0  0  0  0  0  0  0  0  0  0
    7.9477    1.3596   -0.4973 H   0  0  0  0  0  0  0  0  0  0  0  0
    6.2921    1.1475   -1.1378 H   0  0  0  0  0  0  0  0  0  0  0  0
    7.0940    1.6313    1.6829 H   0  0  0  0  0  0  0  0  0  0  0  0
    5.5883    3.4585   -0.0480 H   0  0  0  0  0  0  0  0  0  0  0  0
    7.3712    3.3774   -0.0033 H   0  0  0  0  0  0  0  0  0  0  0  0
    6.5325    3.7857    1.5038 H   0  0  0  0  0  0  0  0  0  0  0  0
    5.1583    0.9463    2.3908 H   0  0  0  0  0  0  0  0  0  0  0  0
    4.3853    2.1260    1.3159 H   0  0  0  0  0  0  0  0  0  0  0  0
    4.2864    0.5015   -0.4634 H   0  0  0  0  0  0  0  0  0  0  0  0
    3.7385   -0.2814    1.0647 H   0  0  0  0  0  0  0  0  0  0  0  0
    5.6150   -1.8759   -2.2150 H   0  0  0  0  0  0  0  0  0  0  0  0
    4.1411   -2.4823   -3.0730 H   0  0  0  0  0  0  0  0  0  0  0  0
    4.1869   -0.8219   -2.4624 H   0  0  0  0  0  0  0  0  0  0  0  0
    2.1865   -1.1433   -2.7623 H   0  0  0  0  0  0  0  0  0  0  0  0
   -0.1873   -0.8316   -2.4357 H   0  0  0  0  0  0  0  0  0  0  0  0
   -4.9062   -0.6466    1.3744 H   0  0  0  0  0  0  0  0  0  0  0  0
   -6.7861   -2.1237    1.3347 H   0  0  0  0  0  0  0  0  0  0  0  0
  1  2  2  0
  2  3  1  0
  3  4  2  0
  4  5  1  0
  5  6  1  0
  6  7  2  0
  7  8  1  0
  7  9  1  0
  9 10  2  0
 10 11  1  0
 11 12  2  0
 12 13  1  0
 13 14  1  0
 14 15  2  0
 14 16  1  0
 16 17  1  0
 13 18  1  0
 18 19  2  0
  5 20  2  3
 20 21  1  0
 21 22  2  0
 22 23  1  0
 23 24  2  0
 24 25  1  0
 25 26  1  0
 26 27  1  0
 26 28  2  3
 28 29  1  0
 29 30  1  0
 30 31  1  0
 31 32  1  0
 32 33  1  0
 32 34  1  0
 34 35  1  0
 25 36  1  0
 24 37  1  0
 37 38  2  0
  4 39  1  0
 39 40  2  0
 40  1  1  0
 19  6  1  0
 38 21  1  0
 19 10  1  0
 35 29  1  0
  1 41  1  0
  2 42  1  0
  3 43  1  0
  8 44  1  0
 11 45  1  0
 12 46  1  0
 13 47  1  0
 17 48  1  0
 17 49  1  0
 17 50  1  0
 18 51  1  0
 22 52  1  0
 23 53  1  0
 27 54  1  0
 28 55  1  0
 30 56  1  0
 30 57  1  0
 31 58  1  0
 31 59  1  0
 32 60  1  0
 33 61  1  0
 33 62  1  0
 33 63  1  0
 34 64  1  0
 34 65  1  0
 35 66  1  0
 35 67  1  0
 36 68  1  0
 36 69  1  0
 36 70  1  0
 37 71  1  0
 38 72  1  0
 39 73  1  0
 40 74  1  0
M  CHG  1  32   1
M  END
