24

N 2.05079447 -0.40928097 0.24174309
C 0.69879829 -0.14154947 0.04738684
C -0.16733102 -1.32623157 -0.36678524
C -1.48793896 -1.14211078 -0.86297844
C 0.26256043 1.16471862 0.33825990
C 0.23161462 -2.66028807 -0.04641172
H 2.68031918 0.39666570 0.41525773
C -1.05495346 1.80190612 0.41596659
N 0.50578292 3.39575789 0.75951085
C 1.23595885 2.24929730 0.57232462
C -0.86159841 3.12582565 0.67215851
C -0.61552260 -3.74799070 -0.29528757
C -2.32516831 -2.23584893 -1.11923972
C -1.89635809 -3.54545209 -0.83894774
H 1.19845591 -2.85362893 0.42218752
H -1.84295673 -0.14870356 -1.12979818
H 0.94465811 4.28701894 0.93950551
O 2.49606472 2.18739585 0.59558624
H -0.28195915 -4.75889800 -0.05338431
H -3.31888814 -2.06777267 -1.53921054
H -2.55454593 -4.39440806 -1.03248572
H -2.02021036 1.32647346 0.32697569
H -1.58556261 3.91681114 0.80916918
H 2.43237227 -1.18229688 -0.30066209
