24

N 1.80798521 0.00443984 -1.09213769
C 0.59857854 0.01956950 -0.41282480
C -0.28639547 -1.18881922 -0.53968452
C -0.55001395 -1.76901797 -1.81029469
C 0.30870909 1.11124941 0.41326796
C -0.79749193 -1.83197799 0.61909110
H 2.35636491 0.88590282 -1.08737112
C -0.76624145 1.37730350 1.36322263
N 0.60432189 3.17628440 1.31484255
C 1.16754566 2.30591473 0.41501108
C -0.54780310 2.61832470 1.88211938
C -1.58342191 -2.98551260 0.50497161
C -1.33847555 -2.92228287 -1.91517045
C -1.86411624 -3.53515037 -0.76104605
H -0.56235531 -1.43963523 1.61014872
H -0.16322237 -1.30087148 -2.71836297
H 1.00429265 4.08353824 1.50514040
O 2.21064779 2.52839623 -0.25868293
H -1.97469853 -3.46353749 1.40488139
H -1.54717669 -3.34659092 -2.89907974
H -2.47679858 -4.43448796 -0.84679278
H -1.59745660 0.73187602 1.60659639
H -1.12172484 3.17380943 2.61061386
H 1.84333781 -0.56131071 -1.93761832
