 xtb: 6.5.0 (97a52f5)
          11182308443D

 24  0  0     0  0            999 V2000
    1.2934   -0.5200    1.7196 N   0  0  0  0  0  0  0  0  0  0  0  0
    0.4796   -0.2121    0.6853 C   0  0  0  0  0  0  0  0  0  0  0  0
   -0.3123   -1.3074    0.0813 C   0  0  0  0  0  0  0  0  0  0  0  0
   -1.4007   -1.8364    0.7652 C   0  0  0  0  0  0  0  0  0  0  0  0
    0.3401    1.0858    0.2767 C   0  0  0  0  0  0  0  0  0  0  0  0
    0.0030   -1.7894   -1.1836 C   0  0  0  0  0  0  0  0  0  0  0  0
    1.8925    0.2512    2.0157 H   0  0  0  0  0  0  0  0  0  0  0  0
   -0.5622    1.6755   -0.6775 C   0  0  0  0  0  0  0  0  0  0  0  0
    0.7493    3.2947    0.1379 N   0  0  0  0  0  0  0  0  0  0  0  0
    1.1655    2.1721    0.7995 C   0  0  0  0  0  0  0  0  0  0  0  0
   -0.2885    2.9927   -0.7304 C   0  0  0  0  0  0  0  0  0  0  0  0
   -0.7486   -2.8056   -1.7468 C   0  0  0  0  0  0  0  0  0  0  0  0
   -2.1531   -2.8481    0.1959 C   0  0  0  0  0  0  0  0  0  0  0  0
   -1.8263   -3.3366   -1.0581 C   0  0  0  0  0  0  0  0  0  0  0  0
    0.8398   -1.3664   -1.7201 H   0  0  0  0  0  0  0  0  0  0  0  0
   -1.6507   -1.4501    1.7421 H   0  0  0  0  0  0  0  0  0  0  0  0
    1.1268    4.2142    0.2938 H   0  0  0  0  0  0  0  0  0  0  0  0
    2.0669    2.1266    1.6349 O   0  0  0  0  0  0  0  0  0  0  0  0
   -0.4943   -3.1816   -2.7268 H   0  0  0  0  0  0  0  0  0  0  0  0
   -2.9982   -3.2549    0.7316 H   0  0  0  0  0  0  0  0  0  0  0  0
   -2.4131   -4.1283   -1.4998 H   0  0  0  0  0  0  0  0  0  0  0  0
   -1.3099    1.1449   -1.2327 H   0  0  0  0  0  0  0  0  0  0  0  0
   -0.7455    3.7678   -1.3151 H   0  0  0  0  0  0  0  0  0  0  0  0
    1.6708   -1.4512    1.7823 H   0  0  0  0  0  0  0  0  0  0  0  0
M  END
