
     RDKit          3D

 24 25  0  0  0  0  0  0  0  0999 V2000
    1.7297   -2.0100   -0.0898 O   0  0  0  0  0  0  0  0  0  0  0  0
    2.3902   -0.9959    0.2414 C   0  0  0  0  0  0  0  0  0  0  0  0
    3.6100   -0.9701    0.9697 N   0  0  0  0  0  0  0  0  0  0  0  0
    4.0198    0.3949    1.1286 C   0  0  0  0  0  0  0  0  0  0  0  0
    3.1295    1.1977    0.5450 C   0  0  0  0  0  0  0  0  0  0  0  0
    2.0537    0.3916   -0.0478 C   0  0  0  0  0  0  0  0  0  0  0  0
    0.9832    0.8186   -0.7155 C   0  0  0  0  0  0  0  0  0  0  0  0
    0.0132   -0.0766   -1.2394 N   0  0  0  0  0  0  0  0  0  0  0  0
   -1.3298   -0.0942   -0.7207 C   0  0  0  0  0  0  0  0  0  0  0  0
   -2.2712   -0.9623   -1.2284 C   0  0  0  0  0  0  0  0  0  0  0  0
   -3.5521   -0.9528   -0.7069 C   0  0  0  0  0  0  0  0  0  0  0  0
   -3.9434   -0.1053    0.3123 C   0  0  0  0  0  0  0  0  0  0  0  0
   -2.9954    0.7608    0.8153 C   0  0  0  0  0  0  0  0  0  0  0  0
   -1.7141    0.7538    0.2962 C   0  0  0  0  0  0  0  0  0  0  0  0
    4.1665   -1.7633    1.3529 H   0  0  0  0  0  0  0  0  0  0  0  0
    4.9092    0.7376    1.6392 H   0  0  0  0  0  0  0  0  0  0  0  0
    3.1420    2.2813    0.4839 H   0  0  0  0  0  0  0  0  0  0  0  0
    0.8563    1.8836   -0.8588 H   0  0  0  0  0  0  0  0  0  0  0  0
    0.2534   -0.7351   -2.0058 H   0  0  0  0  0  0  0  0  0  0  0  0
   -1.9801   -1.6342   -2.0288 H   0  0  0  0  0  0  0  0  0  0  0  0
   -4.2616   -1.6358   -1.1188 H   0  0  0  0  0  0  0  0  0  0  0  0
   -4.9623   -0.1586    0.6652 H   0  0  0  0  0  0  0  0  0  0  0  0
   -3.2767    1.4344    1.6135 H   0  0  0  0  0  0  0  0  0  0  0  0
   -0.9702    1.4399    0.6975 H   0  0  0  0  0  0  0  0  0  0  0  0
  1  2  2  0
  2  3  1  0
  3  4  1  0
  4  5  2  0
  5  6  1  0
  6  7  2  0
  7  8  1  0
  8  9  1  0
  9 10  2  0
 10 11  1  0
 11 12  2  0
 12 13  1  0
 13 14  2  0
  6  2  1  0
 14  9  1  0
  3 15  1  0
  4 16  1  0
  5 17  1  0
  7 18  1  0
  8 19  1  0
 10 20  1  0
 11 21  1  0
 12 22  1  0
 13 23  1  0
 14 24  1  0
M  END
