
     RDKit          3D

 24 25  0  0  0  0  0  0  0  0999 V2000
   -2.7228   -0.6618    0.3030 C   0  0  0  0  0  0  0  0  0  0  0  0
   -4.1249   -0.4593   -0.1184 C   0  0  0  0  0  0  0  0  0  0  0  0
   -4.2581    0.6990   -0.6757 N   0  0  0  0  0  0  0  0  0  0  0  0
   -3.0158    1.3851   -0.6944 C   0  0  0  0  0  0  0  0  0  0  0  0
   -2.6462    2.3081   -1.4443 O   0  0  0  0  0  0  0  0  0  0  0  0
   -2.2256    0.7620    0.3905 C   0  0  0  0  0  0  0  0  0  0  0  0
   -0.7694    0.8580    0.1786 C   0  0  0  0  0  0  0  0  0  0  0  0
   -0.0756   -0.2074    0.1914 N   0  0  0  0  0  0  0  0  0  0  0  0
    1.3206   -0.2885    0.0060 C   0  0  0  0  0  0  0  0  0  0  0  0
    2.0970   -1.2449    0.6458 C   0  0  0  0  0  0  0  0  0  0  0  0
    3.4578   -1.3079    0.4520 C   0  0  0  0  0  0  0  0  0  0  0  0
    4.1082   -0.4276   -0.3829 C   0  0  0  0  0  0  0  0  0  0  0  0
    3.3512    0.5371   -1.0330 C   0  0  0  0  0  0  0  0  0  0  0  0
    1.9841    0.5864   -0.8270 C   0  0  0  0  0  0  0  0  0  0  0  0
   -2.1890   -1.1779   -0.5325 H   0  0  0  0  0  0  0  0  0  0  0  0
   -2.6248   -1.2051    1.2588 H   0  0  0  0  0  0  0  0  0  0  0  0
   -4.9057   -1.1983    0.0338 H   0  0  0  0  0  0  0  0  0  0  0  0
   -2.5424    1.1483    1.3819 H   0  0  0  0  0  0  0  0  0  0  0  0
   -0.3152    1.8107    0.0180 H   0  0  0  0  0  0  0  0  0  0  0  0
    1.5871   -1.9520    1.3142 H   0  0  0  0  0  0  0  0  0  0  0  0
    4.0492   -2.0740    0.9700 H   0  0  0  0  0  0  0  0  0  0  0  0
    5.1821   -0.5031   -0.5149 H   0  0  0  0  0  0  0  0  0  0  0  0
    3.8434    1.2456   -1.6994 H   0  0  0  0  0  0  0  0  0  0  0  0
    1.4349    1.3675   -1.3647 H   0  0  0  0  0  0  0  0  0  0  0  0
  1  2  1  0
  2  3  2  0
  3  4  1  0
  4  5  2  0
  4  6  1  0
  6  7  1  0
  7  8  2  3
  8  9  1  0
  9 10  2  0
 10 11  1  0
 11 12  2  0
 12 13  1  0
 13 14  2  0
  6  1  1  0
 14  9  1  0
  1 15  1  0
  1 16  1  0
  2 17  1  0
  6 18  1  0
  7 19  1  0
 10 20  1  0
 11 21  1  0
 12 22  1  0
 13 23  1  0
 14 24  1  0
M  END
