
 OpenBabel11182308033D

 24 25  0  0  0  0  0  0  0  0999 V2000
   -2.6416   -1.0747    0.6131 C   0  0  0  0  0  0  0  0  0  0  0  0
   -4.0250   -0.9844    0.6202 C   0  0  0  0  0  0  0  0  0  0  0  0
   -4.3129    0.2041    0.0522 N   0  0  0  0  0  0  0  0  0  0  0  0
   -3.1804    0.8393   -0.2988 C   0  0  0  0  0  0  0  0  0  0  0  0
   -3.0286    2.0845   -0.9107 O   0  0  0  0  0  0  0  0  0  0  0  0
   -2.1029    0.0508    0.0453 C   0  0  0  0  0  0  0  0  0  0  0  0
   -0.6838    0.3281   -0.1422 C   0  0  0  0  0  0  0  0  0  0  0  0
    0.1668   -0.5497    0.2538 N   0  0  0  0  0  0  0  0  0  0  0  0
    1.5581   -0.3101    0.0857 C   0  0  0  0  0  0  0  0  0  0  0  0
    2.3639   -1.4354   -0.0569 C   0  0  0  0  0  0  0  0  0  0  0  0
    3.7223   -1.3002   -0.2245 C   0  0  0  0  0  0  0  0  0  0  0  0
    4.2606   -0.0291   -0.2473 C   0  0  0  0  0  0  0  0  0  0  0  0
    3.4594    1.0754   -0.1060 C   0  0  0  0  0  0  0  0  0  0  0  0
    2.1141    0.9518    0.0603 C   0  0  0  0  0  0  0  0  0  0  0  0
   -2.0806   -1.9149    1.0014 H   0  0  0  0  0  0  0  0  0  0  0  0
   -4.7087   -1.7386    1.0126 H   0  0  0  0  0  0  0  0  0  0  0  0
   -5.2804    0.5757   -0.0929 H   0  0  0  0  0  0  0  0  0  0  0  0
   -2.2451    2.6863   -0.7406 H   0  0  0  0  0  0  0  0  0  0  0  0
   -0.3350    1.2439   -0.6009 H   0  0  0  0  0  0  0  0  0  0  0  0
    1.9285   -2.4278   -0.0371 H   0  0  0  0  0  0  0  0  0  0  0  0
    4.3179   -2.1918   -0.3320 H   0  0  0  0  0  0  0  0  0  0  0  0
    5.3440    0.0461   -0.3821 H   0  0  0  0  0  0  0  0  0  0  0  0
    3.9303    2.0427   -0.1312 H   0  0  0  0  0  0  0  0  0  0  0  0
    1.4589    1.8283    0.1749 H   0  0  0  0  0  0  0  0  0  0  0  0
  1  2  2  0  0  0  0
  1 15  1  0  0  0  0
  2  3  1  0  0  0  0
  2 16  1  0  0  0  0
  3  4  1  0  0  0  0
  3 17  1  0  0  0  0
  4  5  1  0  0  0  0
  4  6  2  0  0  0  0
  5 18  1  0  0  0  0
  6  7  1  0  0  0  0
  6  1  1  0  0  0  0
  7  8  2  3  0  0  0
  7 19  1  0  0  0  0
  8  9  1  0  0  0  0
  9 10  2  0  0  0  0
 10 11  1  0  0  0  0
 10 20  1  0  0  0  0
 11 12  2  0  0  0  0
 11 21  1  0  0  0  0
 12 13  1  0  0  0  0
 12 22  1  0  0  0  0
 13 14  2  0  0  0  0
 13 23  1  0  0  0  0
 14  9  1  0  0  0  0
 14 24  1  0  0  0  0
M  END
$$$$
