
 OpenBabel11182308033D

 24 25  0  0  0  0  0  0  0  0999 V2000
   -2.9323    0.5146    0.1249 C   0  0  0  0  0  0  0  0  0  0  0  0
   -3.2965   -0.9112    0.2595 C   0  0  0  0  0  0  0  0  0  0  0  0
   -2.5983   -1.6580   -0.5255 N   0  0  0  0  0  0  0  0  0  0  0  0
   -1.6815   -0.8924   -1.2919 C   0  0  0  0  0  0  0  0  0  0  0  0
   -1.1136   -1.1958   -2.3489 O   0  0  0  0  0  0  0  0  0  0  0  0
   -1.5571    0.3911   -0.5146 C   0  0  2  0  0  0  0  0  0  0  0  0
   -0.5310    0.1893    0.5680 C   0  0  0  0  0  0  0  0  0  0  0  0
    0.8830    0.1563    0.2566 C   0  0  0  0  0  0  0  0  0  0  0  0
    1.7963   -0.1768    1.2396 C   0  0  0  0  0  0  0  0  0  0  0  0
    3.1485   -0.1830    0.9429 C   0  0  0  0  0  0  0  0  0  0  0  0
    3.5497    0.1447   -0.3312 C   0  0  0  0  0  0  0  0  0  0  0  0
    2.6622    0.4750   -1.3095 C   0  0  0  0  0  0  0  0  0  0  0  0
    1.2948    0.4834   -1.0156 C   0  0  0  0  0  0  0  0  0  0  0  0
   -0.9642    0.0083    1.7567 N   0  0  0  0  0  0  0  0  0  0  0  0
   -2.8680    1.0579    1.0649 H   0  0  0  0  0  0  0  0  0  0  0  0
   -3.5852    1.0128   -0.6205 H   0  0  0  0  0  0  0  0  0  0  0  0
   -4.0801   -1.2252    0.9659 H   0  0  0  0  0  0  0  0  0  0  0  0
   -1.2836    1.2174   -1.1704 H   0  0  0  0  0  0  0  0  0  0  0  0
    1.5273   -0.4433    2.2567 H   0  0  0  0  0  0  0  0  0  0  0  0
    3.8698   -0.4492    1.7304 H   0  0  0  0  0  0  0  0  0  0  0  0
    4.6083    0.1306   -0.5314 H   0  0  0  0  0  0  0  0  0  0  0  0
    2.9528    0.7371   -2.3214 H   0  0  0  0  0  0  0  0  0  0  0  0
    0.6022    0.7605   -1.7951 H   0  0  0  0  0  0  0  0  0  0  0  0
   -0.4035   -0.1442    2.6099 H   0  0  0  0  0  0  0  0  0  0  0  0
  1  2  1  0  0  0  0
  1 15  1  0  0  0  0
  1 16  1  0  0  0  0
  2  3  2  0  0  0  0
  2 17  1  0  0  0  0
  3  4  1  0  0  0  0
  4  5  2  0  0  0  0
  4  6  1  0  0  0  0
  6  7  1  0  0  0  0
  6  1  1  0  0  0  0
  6 18  1  6  0  0  0
  7  8  1  0  0  0  0
  7 14  2  0  0  0  0
  8  9  2  0  0  0  0
  9 10  1  0  0  0  0
  9 19  1  0  0  0  0
 10 11  2  0  0  0  0
 10 20  1  0  0  0  0
 11 12  1  0  0  0  0
 11 21  1  0  0  0  0
 12 13  2  0  0  0  0
 12 22  1  0  0  0  0
 13  8  1  0  0  0  0
 13 23  1  0  0  0  0
 14 24  1  0  0  0  0
M  END
$$$$
