34

H 0.89968896 -0.34481880 -1.69872385
N 0.83494805 -0.61083588 -0.71357130
C -0.45904586 -0.29492300 -0.18164341
C -1.53313699 -1.23511072 -0.60176804
C 2.06404844 -0.36988764 -0.01251876
C -0.80783401 0.96418497 0.30482148
C -2.06984663 1.36770834 0.92071944
N -0.80762801 3.22847141 0.66367466
C -0.02289001 2.24417657 0.08174645
C -2.00281198 2.70462804 1.15506583
C -1.75958662 -2.42413969 0.13381334
C -2.39640428 -0.91684754 -1.68084853
C -2.80254968 -3.28980956 -0.22115643
C -3.43795073 -1.78560993 -2.03378253
C -3.64473527 -2.97758762 -1.30861264
C 2.10460644 -0.21187084 1.39818515
C 3.29742019 -0.40623858 -0.71072890
C 3.32689557 -0.03877084 2.05952108
C 4.50858757 -0.23346888 -0.03019533
C 4.53477482 -0.03693902 1.35437493
H -0.51538103 4.19450640 0.66759701
O 1.04099352 2.45109119 -0.50156713
H -1.11259381 -2.67114027 0.97786344
H -2.25216283 0.00914735 -2.24177686
H -2.96084852 -4.20850203 0.34642214
H -4.09126963 -1.53584383 -2.87171799
H -4.45653877 -3.65307380 -1.58446381
H 1.18862300 -0.22550225 1.99137690
H 3.31343956 -0.56666331 -1.79074738
H 3.33005105 0.09654954 3.14284450
H 5.44244436 -0.25042111 -0.59576603
H -2.89857671 0.71470135 1.15631856
H -2.73525755 3.35575983 1.61057359
H 5.48392439 0.10008216 1.87673043
