34

H 0.66410751 -2.01084791 0.45659841
N 0.68786874 -1.01696251 0.69512834
C -0.54783840 -0.37717736 0.34449883
C -1.43731169 -1.16333253 -0.55309883
C 1.99527931 -0.46577321 0.46173103
C -1.02856194 0.77886253 0.95359295
C -2.29728919 1.46153378 0.70165410
N -1.28531903 2.51503373 2.42952867
C -0.40313816 1.48391613 2.14355697
C -2.39088187 2.49326659 1.58115136
C -2.31088263 -2.14399963 -0.02169319
C -1.44361968 -0.91282061 -1.94652479
C -3.15837636 -2.86947937 -0.86953987
C -2.29431895 -1.63807073 -2.79132653
C -3.15401108 -2.62131390 -2.25815587
C 2.20084411 0.87093769 0.02834832
C 3.13256597 -1.31001164 0.55375279
C 3.49088749 1.33842279 -0.25500212
C 4.41366649 -0.82123052 0.27263824
C 4.60627030 0.50515467 -0.12448080
H -1.10883616 3.15651306 3.18829024
O 0.62896136 1.25425533 2.77086922
H -2.32514639 -2.33556406 1.05342045
H -0.78022477 -0.15286283 -2.36438995
H -3.82471091 -3.62632629 -0.45188986
H -2.28892494 -1.44073979 -3.86471996
H -3.81503942 -3.18654323 -2.91753382
H 1.36442309 1.55620005 -0.10951069
H 3.01859003 -2.35260759 0.85910928
H 3.62116991 2.37296054 -0.57921823
H 5.27045701 -1.49092232 0.37004983
H -3.02669707 1.19039713 -0.04910683
H -3.17936179 3.22329038 1.69685130
H 5.60879212 0.87883762 -0.34251802
