34

H 1.16738603 1.05344225 -1.25178887
N 0.92093747 0.17487490 -0.78301475
C -0.42441633 0.23963314 -0.26841439
C -1.27241666 -0.96703816 -0.49363784
C 2.07785069 -0.35615826 -0.11709441
C -1.03356445 1.44583729 0.06997038
C -2.35340864 1.66442912 0.65427637
N -1.41733620 3.69544536 0.28136443
C -0.45825044 2.81782390 -0.19833748
C -2.52607916 3.00763044 0.77962824
C -1.37927100 -1.99742158 0.47567280
C -2.17930996 -0.97942965 -1.58795600
C -2.28722253 -3.05155726 0.30335423
C -3.08231465 -2.03617384 -1.76128331
C -3.13322289 -3.08503381 -0.82259152
C 2.00837046 -1.03430444 1.12450137
C 3.36936927 -0.05807809 -0.62734923
C 3.17290478 -1.46781713 1.77111957
C 4.52247970 -0.50542640 0.02812904
C 4.43588958 -1.22245528 1.22474742
H -1.28687600 4.69539070 0.23464240
O 0.60362604 3.14269290 -0.73583158
H -0.77435972 -1.97533555 1.37967525
H -2.16253114 -0.16445848 -2.31501914
H -2.34208308 -3.84585947 1.05013597
H -3.75021727 -2.04258599 -2.62442740
H -3.83953486 -3.90647097 -0.95439875
H 1.05564498 -1.20390453 1.61716593
H 3.47363997 0.50782086 -1.55582662
H 3.08596660 -2.00047986 2.72018879
H 5.49981965 -0.28522374 -0.40574257
H -3.05729807 0.89554340 0.94021521
H -3.36996670 3.55336601 1.17708966
H 5.33918853 -1.56571576 1.73289577
