24

H -0.45545520 -0.48396157 -1.09942126
N 0.06589699 -0.32498482 -0.21389336
C 1.24525200 -1.07379701 0.02106900
C 2.38103595 -0.48309384 0.63049528
C -0.51151513 0.63656830 0.57623022
C 1.29070636 -2.44313492 -0.33865059
C -1.68968898 1.29842259 0.22029702
N -3.52032819 1.84270099 -0.99613928
C -2.41057189 2.35182905 0.90126227
C -2.43781196 0.99595363 -1.00990910
C -3.50206086 2.65124812 0.14433202
C 2.44570900 -3.19820414 -0.09741942
C 3.53151996 -1.24805744 0.86415364
C 3.57603076 -2.60965991 0.50369238
H 0.42456363 -2.92028656 -0.80290319
H 2.37730376 0.57210904 0.91090634
H -4.20952630 1.84734021 -1.73387221
O -2.16437320 0.15273629 -1.89772548
H 2.46406193 -4.25209059 -0.38089404
H 4.40012492 -0.77791110 1.32846364
H -2.14133896 2.81884645 1.83839748
H -4.28415257 3.37865245 0.31120630
H 4.47525533 -3.20084066 0.68696097
H 0.01511463 0.90859346 1.49464437
