24

H -0.79946260 -0.89283900 -0.55947824
N -0.02645018 -0.42847311 -0.04129749
C 1.18523078 -1.14722134 0.14149376
C 2.10426330 -0.80899607 1.16876500
C -0.35820219 0.84368585 0.35509524
C 1.50943439 -2.20498320 -0.74522515
C -1.60541148 1.41634267 0.08983521
N -3.73290544 1.58689104 -0.66613459
C -2.10786052 2.73815665 0.39332145
C -2.68674732 0.69786488 -0.60132858
C -3.38517832 2.80420250 -0.07326113
C 2.70903151 -2.91232703 -0.59544074
C 3.29959618 -1.52682369 1.31028926
C 3.61298539 -2.58397896 0.43361621
H 0.82706329 -2.47495768 -1.55474264
H 1.88965346 -0.00239217 1.87195186
H -4.61455699 1.35049990 -1.09742486
O -2.67683149 -0.47337172 -1.05047695
H 2.93866639 -3.72576556 -1.28590649
H 3.99051506 -1.26065588 2.11246928
H -1.57567633 3.53270544 0.89745811
H -4.09447384 3.61934785 -0.04066498
H 4.54489166 -3.14060035 0.54933594
H 0.41817428 1.43267000 0.84903549
