24

N 1.56314713 -0.53639204 1.46416665
C 0.55704283 -0.21452790 0.57393073
C -0.26362993 -1.33264216 0.03197713
C -1.56803791 -1.56913713 0.53172054
C 0.29343675 1.12293418 0.28408490
C 0.22823535 -2.13448116 -1.02758807
H 2.19545088 0.23819005 1.74426453
C -0.76924234 1.76803552 -0.47114995
N 0.65844737 3.35967059 0.27644347
C 1.19355323 2.18662082 0.74819513
C -0.51472053 3.10718590 -0.44876751
C -0.55954644 -3.16598184 -1.55453379
C -2.34992872 -2.60228739 0.00015169
C -1.85146383 -3.40797067 -1.04407176
H 1.22278909 -1.94299972 -1.43607689
H -1.95900974 -0.94437422 1.33735275
H 1.08914456 4.25498883 0.45570583
O 2.24813532 2.08426325 1.43220185
H -0.17094643 -3.78236429 -2.36733359
H -3.35031658 -2.78260643 0.39770245
H -2.46367012 -4.21214582 -1.45654679
H -1.60154992 1.28782423 -0.96522308
H -1.06631357 3.92321946 -0.89444592
H 1.96337653 -1.46761306 1.35868471
