15

C 1.66508896 -0.49381106 0.05432188
N 0.57789039 0.53063730 0.01670972
C -0.69338148 -0.04120766 0.43871364
C -1.16994660 -1.36524927 -0.18503070
C 0.94286217 1.68741974 0.89678690
H -0.73203013 -0.15657625 1.54632083
H -1.49650187 0.70646672 0.24702749
O -0.63406655 -2.05769034 -1.04341076
H 1.05022540 1.37928680 1.94988827
H 0.17493936 2.47398265 0.81343551
H 1.40173337 -1.29602609 -0.65237662
H 1.79278676 -0.91873558 1.06343888
H 2.61412707 -0.04921153 -0.28548307
H -2.16313582 -1.67463171 0.20836099
H 1.89452496 2.12211728 0.55063103
