15

C 1.83442073 -0.26542183 1.21419013
N 1.00230684 -0.11006254 -0.01791516
C -0.23813630 -0.87730949 0.08993377
C -1.60381441 -0.21485532 0.37800352
C 0.76718924 1.32695433 -0.32163723
H -0.35492708 -1.45134682 -0.85698507
H -0.13323558 -1.69092760 0.84235483
O -1.90426656 0.95825772 0.57377098
H 0.16278213 1.79127429 0.47193208
H 0.21470632 1.41697266 -1.27017577
H 2.05211626 -1.33112431 1.39320305
H 1.31897442 0.16207448 2.09043094
H 2.80021723 0.24495933 1.07026321
H -2.41889292 -0.97235056 0.38878301
H 1.72568167 1.85966967 -0.42681129
