15

C 1.63090731 -0.41822671 -0.14902791
N 0.57328269 0.62066370 0.00095950
C -0.74025122 0.04727515 0.31049656
C -1.08693250 -1.43703881 0.06321784
C 0.98574025 1.60116841 1.05653445
H -1.05427419 0.28505605 1.35180434
H -1.48420158 0.62553815 -0.28366434
O -0.41843840 -2.35012360 -0.40992965
H 1.09432957 1.11221586 2.03908991
H 0.24082575 2.41158429 1.12162981
H 1.33582335 -1.11609831 -0.94623812
H 1.75609378 -0.99439151 0.78145880
H 2.59049483 0.04725507 -0.42553141
H -2.14520253 -1.64873944 0.33421165
H 1.94692188 2.06062970 0.77432257
