15

C 1.63237497 -0.41988390 -0.15294769
N 0.57687018 0.61615101 0.01192885
C -0.73997346 0.04895390 0.30702500
C -1.08827468 -1.43584058 0.06432948
C 0.98549541 1.60082666 1.06265020
H -1.06576612 0.29439411 1.34276969
H -1.47490704 0.62596783 -0.29964344
O -0.41716224 -2.35427293 -0.39435001
H 1.09887847 1.11219261 2.04463010
H 0.23493344 2.40556898 1.13119448
H 1.33057354 -1.11589807 -0.94928854
H 1.76679916 -0.99801662 0.77488516
H 2.58789190 0.04821843 -0.43844381
H -2.14645762 -1.64613271 0.33664289
H 1.94384210 2.06454028 0.77795264
