15

C 1.66271245 -0.19661383 1.31504531
N 1.02848709 -0.13799757 -0.03532661
C -0.21898606 -0.87316480 -0.04899382
C -1.46261395 -0.28714595 0.64895168
C 0.83645986 1.27038005 -0.48707924
H -0.49871280 -1.08255186 -1.10626970
H -0.06217966 -1.89108289 0.37448465
O -1.58841446 0.76183754 1.27301751
H 0.14424612 1.78967673 0.19477801
H 0.43378721 1.28709089 -1.51294745
H 1.83721615 -1.24382833 1.61126401
H 1.01457085 0.29757774 2.05802136
H 2.63984651 0.31148770 1.28633370
H -2.34615226 -0.95436265 0.54217717
H 1.80485395 1.79546024 -0.49411458
