15

C 1.984075411262 -0.425096198732 0.757785897996
N 0.796640920971 0.036284568551 0.052986394344
C -0.370009779273 -0.666758620589 0.532197956011
C -1.609222523401 -0.484837582797 -0.308645683636
C 0.647890183453 1.478971752163 0.206124664211
H -0.163734525536 -1.74663203944 0.53833574819
H -0.643478809668 -0.411142506991 1.580125497137
O -1.700800980599 0.202066166593 -1.313560494123
H 0.512277152049 1.776661871134 1.262119009699
H -0.204322303605 1.821871084313 -0.377985001474
H 2.112172363122 -1.499141253415 0.59960544021
H 1.941588773764 -0.234479011653 1.845492588957
H 2.86006657441 0.087895714005 0.354184441312
H -2.484624624388 -1.057777853573 0.065915101544
H 1.546604877879 1.968881529833 -0.175340884465
