
     RDKit          3D

 15 15  0  0  0  0  0  0  0  0999 V2000
   -6.0815    0.5352   -0.2235 C   0  0  0  0  0  0  0  0  0  0  0  0
   -7.1619    1.2163    0.3715 C   0  0  0  0  0  0  0  0  0  0  0  0
   -8.4278    0.4591    0.5857 C   0  0  0  0  0  0  0  0  0  0  0  0
   -9.3867    1.2669    1.1025 O   0  0  0  0  0  0  0  0  0  0  0  0
   -7.0272    2.5692    0.7510 C   0  0  0  0  0  0  0  0  0  0  0  0
   -8.5577   -0.7253    0.3219 O   0  0  0  0  0  0  0  0  0  0  0  0
   -4.8891    1.2114   -0.4369 C   0  0  0  0  0  0  0  0  0  0  0  0
   -4.7872    2.5483   -0.0370 C   0  0  0  0  0  0  0  0  0  0  0  0
   -6.2052   -0.5065   -0.4997 H   0  0  0  0  0  0  0  0  0  0  0  0
   -5.8248    3.2484    0.5482 C   0  0  0  0  0  0  0  0  0  0  0  0
   -7.8572    3.1011    1.2118 H   0  0  0  0  0  0  0  0  0  0  0  0
   -5.7176    4.2861    0.8444 H   0  0  0  0  0  0  0  0  0  0  0  0
  -10.2864    0.9038    1.2997 H   0  0  0  0  0  0  0  0  0  0  0  0
   -4.0370    0.7044   -0.9131 H   0  0  0  0  0  0  0  0  0  0  0  0
   -3.8315    3.0690   -0.1968 H   0  0  0  0  0  0  0  0  0  0  0  0
  1  2  2  0
  1  9  1  0
  2  5  1  0
  2  3  1  0
  3  4  1  0
  3  6  2  0
  5 11  1  0
  7  8  2  0
  7  1  1  0
  8 10  1  0
 10  5  2  0
 10 12  1  0
  4 13  1  0
  7 14  1  0
  8 15  1  0
M  END
