 xtb: 6.5.0 (97a52f5)
          11182308153D

 15  0  0     0  0            999 V2000
    0.8574   -0.7397   -0.1690 C   0  0  0  0  0  0  0  0  0  0  0  0
   -0.2376    0.0954    0.0322 C   0  0  0  0  0  0  0  0  0  0  0  0
   -1.5998   -0.4574    0.2050 C   0  0  0  0  0  0  0  0  0  0  0  0
   -1.6033   -1.6661    0.7905 O   0  0  0  0  0  0  0  0  0  0  0  0
   -0.0732    1.4780    0.0040 C   0  0  0  0  0  0  0  0  0  0  0  0
   -2.6175    0.1060   -0.1094 O   0  0  0  0  0  0  0  0  0  0  0  0
    2.1102   -0.1910   -0.3716 C   0  0  0  0  0  0  0  0  0  0  0  0
    2.2751    1.1849   -0.3771 C   0  0  0  0  0  0  0  0  0  0  0  0
    0.7188   -1.8098   -0.1626 H   0  0  0  0  0  0  0  0  0  0  0  0
    1.1837    2.0186   -0.1890 C   0  0  0  0  0  0  0  0  0  0  0  0
   -0.9384    2.1088    0.1410 H   0  0  0  0  0  0  0  0  0  0  0  0
    1.3139    3.0904   -0.1998 H   0  0  0  0  0  0  0  0  0  0  0  0
   -2.5146   -1.9855    0.8818 H   0  0  0  0  0  0  0  0  0  0  0  0
    2.9610   -0.8373   -0.5290 H   0  0  0  0  0  0  0  0  0  0  0  0
    3.2561    1.6089   -0.5334 H   0  0  0  0  0  0  0  0  0  0  0  0
M  END
