
 OpenBabel11172317513D

 74 78  0  0  0  0  0  0  0  0999 V2000
    6.5334   -0.6652   -5.1850 C   0  0  0  0  0  0  0  0  0  0  0  0
    6.6457   -1.3583   -4.0089 C   0  0  0  0  0  0  0  0  0  0  0  0
    5.5605   -1.3886   -3.1240 C   0  0  0  0  0  0  0  0  0  0  0  0
    4.3773   -0.7459   -3.3902 C   0  0  0  0  0  0  0  0  0  0  0  0
    3.2063   -0.7258   -2.5343 C   0  0  0  0  0  0  0  0  0  0  0  0
    3.0963   -1.4042   -1.2633 C   0  0  1  0  0  0  0  0  0  0  0  0
    3.3075   -2.8580   -1.4045 C   0  0  0  0  0  0  0  0  0  0  0  0
    2.7887   -3.6015   -2.3060 O   0  0  0  0  0  0  0  0  0  0  0  0
    4.1847   -3.2292   -0.3503 N   0  0  0  0  0  0  0  0  0  0  0  0
    4.5773   -2.2003    0.3083 C   0  0  0  0  0  0  0  0  0  0  0  0
    5.4277   -2.0922    1.3924 C   0  0  0  0  0  0  0  0  0  0  0  0
    5.7393   -0.8763    1.9541 C   0  0  0  0  0  0  0  0  0  0  0  0
    5.2168    0.3022    1.4624 C   0  0  0  0  0  0  0  0  0  0  0  0
    5.5437    1.4562    2.0270 C   0  0  0  0  0  0  0  0  0  0  0  0
    5.0725    2.6885    1.6079 O   0  0  0  0  0  0  0  0  0  0  0  0
    6.4107    1.4659    3.1069 O   0  0  0  0  0  0  0  0  0  0  0  0
    5.9947    2.0768    4.3134 C   0  0  0  0  0  0  0  0  0  0  0  0
    4.3624    0.2074    0.3780 C   0  0  0  0  0  0  0  0  0  0  0  0
    4.0448   -1.0349   -0.1917 C   0  0  0  0  0  0  0  0  0  0  0  0
    2.1694   -0.0444   -2.9488 N   0  0  0  0  0  0  0  0  0  0  0  0
    0.9542    0.0953   -2.2678 C   0  0  0  0  0  0  0  0  0  0  0  0
    0.6465    1.2909   -1.6492 C   0  0  0  0  0  0  0  0  0  0  0  0
   -0.5556    1.4714   -0.9756 C   0  0  0  0  0  0  0  0  0  0  0  0
   -1.4700    0.4559   -0.9103 C   0  0  0  0  0  0  0  0  0  0  0  0
   -2.7201    0.6530   -0.2219 N   0  0  0  0  0  0  0  0  0  0  0  0
   -2.8242    1.2499    1.0402 C   0  0  0  0  0  0  0  0  0  0  0  0
   -1.6810    1.6980    1.4904 O   0  0  0  0  0  0  0  0  0  0  0  0
   -3.9752    1.4468    1.9023 C   0  0  0  0  0  0  0  0  0  0  0  0
   -5.2292    0.9561    1.5834 N   0  0  0  0  0  0  0  0  0  0  0  0
   -5.5172   -0.4290    1.6591 C   0  0  0  0  0  0  0  0  0  0  0  0
   -6.6565   -0.5509    2.7054 C   0  0  0  0  0  0  0  0  0  0  0  0
   -7.8723    0.0780    2.2192 N   0  3  2  0  0  0  0  0  0  0  0  0
   -8.7318   -0.9668    1.7067 C   0  0  0  0  0  0  0  0  0  0  0  0
   -7.6411    1.0963    1.2268 C   0  0  0  0  0  0  0  0  0  0  0  0
   -6.3404    1.8441    1.5253 C   0  0  0  0  0  0  0  0  0  0  0  0
   -3.8968    0.2321   -0.9366 C   0  0  0  0  0  0  0  0  0  0  0  0
   -1.1539   -0.7251   -1.5262 C   0  0  0  0  0  0  0  0  0  0  0  0
    0.0471   -0.9210   -2.2056 C   0  0  0  0  0  0  0  0  0  0  0  0
    4.3464   -0.0650   -4.6077 C   0  0  0  0  0  0  0  0  0  0  0  0
    5.3628    0.0029   -5.5075 C   0  0  0  0  0  0  0  0  0  0  0  0
    7.3678   -0.6287   -5.8906 H   0  0  0  0  0  0  0  0  0  0  0  0
    7.5708   -1.8826   -3.7594 H   0  0  0  0  0  0  0  0  0  0  0  0
    5.6849   -1.9388   -2.2159 H   0  0  0  0  0  0  0  0  0  0  0  0
    2.0242   -1.2501   -0.8328 H   0  0  0  0  0  0  0  0  0  0  0  0
    5.8600   -3.0217    1.8083 H   0  0  0  0  0  0  0  0  0  0  0  0
    6.4143   -0.8158    2.8133 H   0  0  0  0  0  0  0  0  0  0  0  0
    4.3993    3.2370    2.1439 H   0  0  0  0  0  0  0  0  0  0  0  0
    5.7605    3.1499    4.1636 H   0  0  0  0  0  0  0  0  0  0  0  0
    5.1120    1.5784    4.7634 H   0  0  0  0  0  0  0  0  0  0  0  0
    6.8806    2.0421    5.0046 H   0  0  0  0  0  0  0  0  0  0  0  0
    3.9430    1.1204   -0.0198 H   0  0  0  0  0  0  0  0  0  0  0  0
    1.3466    2.1106   -1.6835 H   0  0  0  0  0  0  0  0  0  0  0  0
   -0.7508    2.4228   -0.5101 H   0  0  0  0  0  0  0  0  0  0  0  0
   -3.6871    1.0231    2.9175 H   0  0  0  0  0  0  0  0  0  0  0  0
   -4.0999    2.5539    2.1611 H   0  0  0  0  0  0  0  0  0  0  0  0
   -5.8664   -0.9242    0.7509 H   0  0  0  0  0  0  0  0  0  0  0  0
   -4.6575   -0.9650    2.1605 H   0  0  0  0  0  0  0  0  0  0  0  0
   -6.3102    0.0732    3.5778 H   0  0  0  0  0  0  0  0  0  0  0  0
   -6.7813   -1.5801    3.0474 H   0  0  0  0  0  0  0  0  0  0  0  0
   -8.3842    0.4730    3.0641 H   0  0  0  0  0  0  0  0  0  0  0  0
   -9.4143   -1.3490    2.4874 H   0  0  0  0  0  0  0  0  0  0  0  0
   -8.0989   -1.8096    1.3250 H   0  0  0  0  0  0  0  0  0  0  0  0
   -9.3152   -0.6252    0.8129 H   0  0  0  0  0  0  0  0  0  0  0  0
   -8.4539    1.8453    1.3057 H   0  0  0  0  0  0  0  0  0  0  0  0
   -7.6391    0.6389    0.2161 H   0  0  0  0  0  0  0  0  0  0  0  0
   -6.2427    2.6739    0.8073 H   0  0  0  0  0  0  0  0  0  0  0  0
   -6.4774    2.2879    2.5457 H   0  0  0  0  0  0  0  0  0  0  0  0
   -3.7045    0.3701   -2.0545 H   0  0  0  0  0  0  0  0  0  0  0  0
   -4.7641    0.8883   -0.7418 H   0  0  0  0  0  0  0  0  0  0  0  0
   -4.1122   -0.8265   -0.8159 H   0  0  0  0  0  0  0  0  0  0  0  0
   -1.8791   -1.5365   -1.4752 H   0  0  0  0  0  0  0  0  0  0  0  0
    0.2373   -1.8570   -2.6625 H   0  0  0  0  0  0  0  0  0  0  0  0
    3.4186    0.4639   -4.8668 H   0  0  0  0  0  0  0  0  0  0  0  0
    5.2674    0.5542   -6.4411 H   0  0  0  0  0  0  0  0  0  0  0  0
  1  2  2  0  0  0  0
  1 41  1  0  0  0  0
  2  3  1  0  0  0  0
  2 42  1  0  0  0  0
  3  4  2  0  0  0  0
  3 43  1  0  0  0  0
  4  5  1  0  0  0  0
  4 39  1  0  0  0  0
  5  6  1  0  0  0  0
  5 20  2  3  0  0  0
  6  7  1  0  0  0  0
  6 44  1  1  0  0  0
  7  8  2  0  0  0  0
  7  9  1  0  0  0  0
  9 10  2  0  0  0  0
 10 11  1  0  0  0  0
 11 12  2  0  0  0  0
 11 45  1  0  0  0  0
 12 13  1  0  0  0  0
 12 46  1  0  0  0  0
 13 14  2  3  0  0  0
 13 18  1  0  0  0  0
 14 15  1  0  0  0  0
 14 16  1  0  0  0  0
 15 47  1  0  0  0  0
 16 17  1  0  0  0  0
 17 48  1  0  0  0  0
 17 49  1  0  0  0  0
 17 50  1  0  0  0  0
 18 19  2  0  0  0  0
 18 51  1  0  0  0  0
 19  6  1  0  0  0  0
 19 10  1  0  0  0  0
 20 21  1  0  0  0  0
 21 22  2  0  0  0  0
 22 23  1  0  0  0  0
 22 52  1  0  0  0  0
 23 24  2  0  0  0  0
 23 53  1  0  0  0  0
 24 25  1  0  0  0  0
 24 37  1  0  0  0  0
 25 26  1  0  0  0  0
 25 36  1  0  0  0  0
 26 27  2  0  0  0  0
 26 28  1  0  0  0  0
 28 29  1  0  0  0  0
 28 54  1  0  0  0  0
 28 55  1  0  0  0  0
 29 30  1  0  0  0  0
 30 31  1  0  0  0  0
 30 56  1  0  0  0  0
 30 57  1  0  0  0  0
 31 32  1  0  0  0  0
 31 58  1  0  0  0  0
 31 59  1  0  0  0  0
 32 33  1  0  0  0  0
 32 34  1  0  0  0  0
 32 60  1  1  0  0  0
 33 61  1  0  0  0  0
 33 62  1  0  0  0  0
 33 63  1  0  0  0  0
 34 35  1  0  0  0  0
 34 64  1  0  0  0  0
 34 65  1  0  0  0  0
 35 29  1  0  0  0  0
 35 66  1  0  0  0  0
 35 67  1  0  0  0  0
 36 68  1  0  0  0  0
 36 69  1  0  0  0  0
 36 70  1  0  0  0  0
 37 38  2  0  0  0  0
 37 71  1  0  0  0  0
 38 21  1  0  0  0  0
 38 72  1  0  0  0  0
 39 40  2  0  0  0  0
 39 73  1  0  0  0  0
 40  1  1  0  0  0  0
 40 74  1  0  0  0  0
M  CHG  1  32   1
M  END
$$$$
