
 OpenBabel11172317513D

 74 78  0  0  0  0  0  0  0  0999 V2000
   -3.0672   -2.6129    3.3664 C   0  0  0  0  0  0  0  0  0  0  0  0
   -1.9503   -1.9480    2.9318 C   0  0  0  0  0  0  0  0  0  0  0  0
   -2.0562   -0.7284    2.2877 C   0  0  0  0  0  0  0  0  0  0  0  0
   -3.2568   -0.0965    2.0352 C   0  0  0  0  0  0  0  0  0  0  0  0
   -3.3453    1.1885    1.3447 C   0  0  0  0  0  0  0  0  0  0  0  0
   -4.6704    1.8504    1.1327 C   0  0  2  0  0  0  0  0  0  0  0  0
   -5.3592    2.0724    2.3925 C   0  0  0  0  0  0  0  0  0  0  0  0
   -4.8811    2.3833    3.5375 O   0  0  0  0  0  0  0  0  0  0  0  0
   -6.7646    1.8732    2.1315 N   0  0  0  0  0  0  0  0  0  0  0  0
   -6.8789    1.2874    0.8222 C   0  0  0  0  0  0  0  0  0  0  0  0
   -7.9458    0.7858    0.1079 C   0  0  0  0  0  0  0  0  0  0  0  0
   -7.8025    0.1471   -1.1027 C   0  0  0  0  0  0  0  0  0  0  0  0
   -6.5438   -0.0227   -1.6692 C   0  0  0  0  0  0  0  0  0  0  0  0
   -6.3802   -0.6953   -2.9529 C   0  0  0  0  0  0  0  0  0  0  0  0
   -5.2187   -0.8165   -3.4105 O   0  0  0  0  0  0  0  0  0  0  0  0
   -7.4120   -1.2012   -3.6881 O   0  0  0  0  0  0  0  0  0  0  0  0
   -7.3476   -1.8550   -4.9204 C   0  0  0  0  0  0  0  0  0  0  0  0
   -5.4752    0.4762   -0.9654 C   0  0  0  0  0  0  0  0  0  0  0  0
   -5.6194    1.1320    0.2717 C   0  0  0  0  0  0  0  0  0  0  0  0
   -2.3554    1.7855    0.8987 N   0  0  0  0  0  0  0  0  0  0  0  0
   -1.0150    1.7767    0.7395 C   0  0  0  0  0  0  0  0  0  0  0  0
   -0.1325    2.3868    1.6434 C   0  0  0  0  0  0  0  0  0  0  0  0
    1.2199    2.3740    1.4646 C   0  0  0  0  0  0  0  0  0  0  0  0
    1.8132    1.7543    0.3723 C   0  0  0  0  0  0  0  0  0  0  0  0
    3.2279    1.7447    0.2096 N   0  0  0  0  0  0  0  0  0  0  0  0
    3.9319    0.5113    0.2231 C   0  0  0  0  0  0  0  0  0  0  0  0
    3.2950   -0.5565    0.3813 O   0  0  0  0  0  0  0  0  0  0  0  0
    5.4004    0.4400    0.0562 C   0  0  0  0  0  0  0  0  0  0  0  0
    5.8203   -0.9189    0.1201 N   0  0  0  0  0  0  0  0  0  0  0  0
    5.4101   -1.7229   -0.9745 C   0  0  0  0  0  0  0  0  0  0  0  0
    6.4784   -2.0968   -1.9482 C   0  0  0  0  0  0  0  0  0  0  0  0
    7.7773   -2.3172   -1.3632 N   0  3  1  0  0  0  0  0  0  0  0  0
    8.6455   -1.1771   -1.6977 C   0  0  0  0  0  0  0  0  0  0  0  0
    7.7528   -2.4073    0.0809 C   0  0  0  0  0  0  0  0  0  0  0  0
    7.1002   -1.1749    0.6789 C   0  0  0  0  0  0  0  0  0  0  0  0
    3.9915    2.9610    0.0326 C   0  0  0  0  0  0  0  0  0  0  0  0
    0.9748    1.1472   -0.5329 C   0  0  0  0  0  0  0  0  0  0  0  0
   -0.3783    1.1579   -0.3574 C   0  0  0  0  0  0  0  0  0  0  0  0
   -4.3849   -0.7887    2.4852 C   0  0  0  0  0  0  0  0  0  0  0  0
   -4.2732   -2.0126    3.1310 C   0  0  0  0  0  0  0  0  0  0  0  0
   -2.9974   -3.5778    3.8776 H   0  0  0  0  0  0  0  0  0  0  0  0
   -0.9531   -2.3808    3.0932 H   0  0  0  0  0  0  0  0  0  0  0  0
   -1.1439   -0.2331    1.9658 H   0  0  0  0  0  0  0  0  0  0  0  0
   -4.4567    2.8794    0.6356 H   0  0  0  0  0  0  0  0  0  0  0  0
   -7.5229    2.1164    2.7825 H   0  0  0  0  0  0  0  0  0  0  0  0
   -8.9453    0.9074    0.5305 H   0  0  0  0  0  0  0  0  0  0  0  0
   -8.6324   -0.2541   -1.6779 H   0  0  0  0  0  0  0  0  0  0  0  0
   -8.3598   -1.6891   -5.4043 H   0  0  0  0  0  0  0  0  0  0  0  0
   -6.6269   -1.4322   -5.6403 H   0  0  0  0  0  0  0  0  0  0  0  0
   -7.2736   -2.9725   -4.8312 H   0  0  0  0  0  0  0  0  0  0  0  0
   -4.4817    0.3625   -1.3745 H   0  0  0  0  0  0  0  0  0  0  0  0
   -0.5782    2.8842    2.5178 H   0  0  0  0  0  0  0  0  0  0  0  0
    1.8972    2.8572    2.1804 H   0  0  0  0  0  0  0  0  0  0  0  0
    5.9148    1.0911    0.7933 H   0  0  0  0  0  0  0  0  0  0  0  0
    5.6410    0.9030   -0.9461 H   0  0  0  0  0  0  0  0  0  0  0  0
    4.6249   -1.1501   -1.5441 H   0  0  0  0  0  0  0  0  0  0  0  0
    4.8500   -2.6118   -0.5825 H   0  0  0  0  0  0  0  0  0  0  0  0
    6.1637   -3.0621   -2.4401 H   0  0  0  0  0  0  0  0  0  0  0  0
    6.5067   -1.3367   -2.7569 H   0  0  0  0  0  0  0  0  0  0  0  0
    8.2614   -3.1611   -1.7372 H   0  0  0  0  0  0  0  0  0  0  0  0
    8.8550   -1.2204   -2.7928 H   0  0  0  0  0  0  0  0  0  0  0  0
    8.1946   -0.2234   -1.3951 H   0  0  0  0  0  0  0  0  0  0  0  0
    9.6063   -1.2941   -1.1560 H   0  0  0  0  0  0  0  0  0  0  0  0
    8.7919   -2.4312    0.4406 H   0  0  0  0  0  0  0  0  0  0  0  0
    7.2450   -3.3351    0.3803 H   0  0  0  0  0  0  0  0  0  0  0  0
    7.8225   -0.3465    0.6058 H   0  0  0  0  0  0  0  0  0  0  0  0
    7.0106   -1.4033    1.7790 H   0  0  0  0  0  0  0  0  0  0  0  0
    3.3662    3.7014   -0.5427 H   0  0  0  0  0  0  0  0  0  0  0  0
    4.1433    3.3853    1.0672 H   0  0  0  0  0  0  0  0  0  0  0  0
    4.9280    2.7330   -0.4722 H   0  0  0  0  0  0  0  0  0  0  0  0
    1.4150    0.6555   -1.3960 H   0  0  0  0  0  0  0  0  0  0  0  0
   -1.0526    0.6780   -1.0694 H   0  0  0  0  0  0  0  0  0  0  0  0
   -5.3549   -0.3992    2.3477 H   0  0  0  0  0  0  0  0  0  0  0  0
   -5.1837   -2.5197    3.4659 H   0  0  0  0  0  0  0  0  0  0  0  0
  1  2  2  0  0  0  0
  1 41  1  0  0  0  0
  2  3  1  0  0  0  0
  2 42  1  0  0  0  0
  3  4  2  0  0  0  0
  3 43  1  0  0  0  0
  4  5  1  0  0  0  0
  4 39  1  0  0  0  0
  5  6  1  0  0  0  0
  5 20  2  3  0  0  0
  6  7  1  0  0  0  0
  6 44  1  6  0  0  0
  7  8  2  0  0  0  0
  7  9  1  0  0  0  0
  9 10  1  0  0  0  0
  9 45  1  0  0  0  0
 10 11  2  0  0  0  0
 11 12  1  0  0  0  0
 11 46  1  0  0  0  0
 12 13  2  0  0  0  0
 12 47  1  0  0  0  0
 13 14  1  0  0  0  0
 13 18  1  0  0  0  0
 14 15  2  0  0  0  0
 14 16  1  0  0  0  0
 16 17  1  0  0  0  0
 17 48  1  0  0  0  0
 17 49  1  0  0  0  0
 17 50  1  0  0  0  0
 18 19  2  0  0  0  0
 18 51  1  0  0  0  0
 19  6  1  0  0  0  0
 19 10  1  0  0  0  0
 20 21  1  0  0  0  0
 21 22  2  0  0  0  0
 22 23  1  0  0  0  0
 22 52  1  0  0  0  0
 23 24  2  0  0  0  0
 23 53  1  0  0  0  0
 24 25  1  0  0  0  0
 24 37  1  0  0  0  0
 25 26  1  0  0  0  0
 25 36  1  0  0  0  0
 26 27  2  0  0  0  0
 26 28  1  0  0  0  0
 28 29  1  0  0  0  0
 28 54  1  0  0  0  0
 28 55  1  0  0  0  0
 29 30  1  0  0  0  0
 30 31  1  0  0  0  0
 30 56  1  0  0  0  0
 30 57  1  0  0  0  0
 31 32  1  0  0  0  0
 31 58  1  0  0  0  0
 31 59  1  0  0  0  0
 32 33  1  0  0  0  0
 32 34  1  0  0  0  0
 32 60  1  6  0  0  0
 33 61  1  0  0  0  0
 33 62  1  0  0  0  0
 33 63  1  0  0  0  0
 34 35  1  0  0  0  0
 34 64  1  0  0  0  0
 34 65  1  0  0  0  0
 35 29  1  0  0  0  0
 35 66  1  0  0  0  0
 35 67  1  0  0  0  0
 36 68  1  0  0  0  0
 36 69  1  0  0  0  0
 36 70  1  0  0  0  0
 37 38  2  0  0  0  0
 37 71  1  0  0  0  0
 38 21  1  0  0  0  0
 38 72  1  0  0  0  0
 39 40  2  0  0  0  0
 39 73  1  0  0  0  0
 40  1  1  0  0  0  0
 40 74  1  0  0  0  0
M  CHG  1  32   1
M  END
$$$$
