11

N -1.66520102 -0.37805590 0.32939696
C -0.38705002 -0.41804321 -0.17540699
C 0.74980511 -0.49646447 0.83670958
N 1.60010121 0.69656059 0.63885424
O -0.13838938 -0.48349253 -1.38476173
H 1.28139551 -1.44469210 0.65386848
H 0.34414790 -0.56531650 1.85990955
H -2.41909646 -0.24861923 -0.32755287
H -1.83010506 -0.05813418 1.27143986
H 2.53513038 0.49922458 0.98782405
H 1.68466282 0.87873294 -0.35990214
