 xtb: 6.5.0 (97a52f5)
          11182308103D

 11  0  0     0  0            999 V2000
   -1.0700   -0.8363   -0.2812 N   0  0  0  0  0  0  0  0  0  0  0  0
   -0.6926    0.3542    0.2632 C   0  0  0  0  0  0  0  0  0  0  0  0
    0.6137    0.2852    1.0481 C   0  0  0  0  0  0  0  0  0  0  0  0
    1.7152   -0.1432    0.1935 N   0  0  0  0  0  0  0  0  0  0  0  0
   -1.2967    1.3769    0.0548 O   0  0  0  0  0  0  0  0  0  0  0  0
    0.4521   -0.3697    1.9221 H   0  0  0  0  0  0  0  0  0  0  0  0
    0.8357    1.2940    1.4059 H   0  0  0  0  0  0  0  0  0  0  0  0
   -1.9655   -0.8609   -0.7437 H   0  0  0  0  0  0  0  0  0  0  0  0
   -0.7382   -1.7064    0.0990 H   0  0  0  0  0  0  0  0  0  0  0  0
    2.4772   -0.4946    0.7652 H   0  0  0  0  0  0  0  0  0  0  0  0
    1.4245   -0.9174   -0.3965 H   0  0  0  0  0  0  0  0  0  0  0  0
M  END
