
     RDKit          3D

 20 20  0  0  0  0  0  0  0  0999 V2000
   -2.1284   -0.2757   -0.6093 C   0  0  0  0  0  0  0  0  0  0  0  0
   -1.3123    0.5793    0.3088 N   0  0  0  0  0  4  0  0  0  0  0  0
   -1.6635    0.4104    1.6425 C   0  0  0  0  0  0  0  0  0  0  0  0
   -1.4966   -0.7575    1.6681 O   0  0  0  0  0  0  0  0  0  0  0  0
    0.0042    0.2303   -0.0201 C   0  0  0  0  0  0  0  0  0  0  0  0
    1.0127    0.9009    0.6854 C   0  0  0  0  0  0  0  0  0  0  0  0
    2.3482    0.6527    0.4600 C   0  0  0  0  0  0  0  0  0  0  0  0
    2.6957   -0.2845   -0.4890 C   0  0  0  0  0  0  0  0  0  0  0  0
    1.6977   -0.9472   -1.1862 C   0  0  0  0  0  0  0  0  0  0  0  0
    0.3655   -0.6783   -0.9398 C   0  0  0  0  0  0  0  0  0  0  0  0
   -1.9710   -1.3455   -0.3867 H   0  0  0  0  0  0  0  0  0  0  0  0
   -1.9381   -0.0560   -1.6475 H   0  0  0  0  0  0  0  0  0  0  0  0
   -3.2106   -0.1097   -0.4235 H   0  0  0  0  0  0  0  0  0  0  0  0
   -1.6826    1.4284    0.0487 H   0  0  0  0  0  0  0  0  0  0  0  0
   -1.9817    0.8225    2.5524 H   0  0  0  0  0  0  0  0  0  0  0  0
    0.7198    1.6497    1.4433 H   0  0  0  0  0  0  0  0  0  0  0  0
    3.1163    1.1978    1.0325 H   0  0  0  0  0  0  0  0  0  0  0  0
    3.7302   -0.5029   -0.6902 H   0  0  0  0  0  0  0  0  0  0  0  0
    2.0302   -1.6710   -1.9179 H   0  0  0  0  0  0  0  0  0  0  0  0
   -0.3358   -1.2437   -1.5314 H   0  0  0  0  0  0  0  0  0  0  0  0
  1  2  1  0
  2  3  1  0
  3  4  2  0
  2  5  1  0
  5  6  2  0
  6  7  1  0
  7  8  2  0
  8  9  1  0
  9 10  2  0
 10  5  1  0
  1 11  1  0
  1 12  1  0
  1 13  1  0
  2 14  1  0
  3 15  1  0
  6 16  1  0
  7 17  1  0
  8 18  1  0
  9 19  1  0
 10 20  1  0
M  CHG  1   2   1
M  END
