
     RDKit          3D

 19 19  0  0  0  0  0  0  0  0999 V2000
   -2.0872    1.1063   -0.8194 C   0  0  0  0  0  0  0  0  0  0  0  0
   -3.3510    1.1321   -0.8090 O   0  0  0  0  0  0  0  0  0  0  0  0
   -1.4394    0.1089   -0.0615 N   0  0  0  0  0  0  0  0  0  0  0  0
   -0.0303    0.0594   -0.0566 C   0  0  0  0  0  0  0  0  0  0  0  0
    0.6618   -0.7362   -0.9356 C   0  0  0  0  0  0  0  0  0  0  0  0
    2.0376   -0.7589   -0.9015 C   0  0  0  0  0  0  0  0  0  0  0  0
    2.7958   -0.0171   -0.0207 C   0  0  0  0  0  0  0  0  0  0  0  0
    2.0787    0.7772    0.8558 C   0  0  0  0  0  0  0  0  0  0  0  0
    0.7009    0.8099    0.8330 C   0  0  0  0  0  0  0  0  0  0  0  0
   -2.1835   -0.8725    0.7168 C   0  0  0  0  0  0  0  0  0  0  0  0
   -1.5028    1.8052   -1.3754 H   0  0  0  0  0  0  0  0  0  0  0  0
    0.1571   -1.3635   -1.6747 H   0  0  0  0  0  0  0  0  0  0  0  0
    2.5876   -1.3901   -1.5986 H   0  0  0  0  0  0  0  0  0  0  0  0
    3.8780   -0.0414   -0.0014 H   0  0  0  0  0  0  0  0  0  0  0  0
    2.6567    1.3793    1.5692 H   0  0  0  0  0  0  0  0  0  0  0  0
    0.1626    1.4514    1.5426 H   0  0  0  0  0  0  0  0  0  0  0  0
   -3.0696   -0.4253    1.2018 H   0  0  0  0  0  0  0  0  0  0  0  0
   -1.4990   -1.3395    1.4678 H   0  0  0  0  0  0  0  0  0  0  0  0
   -2.5540   -1.6853    0.0674 H   0  0  0  0  0  0  0  0  0  0  0  0
  1  2  2  0
  1  3  1  0
  3  4  1  0
  4  5  2  0
  5  6  1  0
  6  7  2  0
  7  8  1  0
  8  9  2  0
  3 10  1  0
  9  4  1  0
  1 11  1  0
  5 12  1  0
  6 13  1  0
  7 14  1  0
  8 15  1  0
  9 16  1  0
 10 17  1  0
 10 18  1  0
 10 19  1  0
M  END
