11

N -1.59240132 -0.20334582 0.33434927
C -0.37812494 -0.58129074 -0.18803371
C 0.79116406 -0.61393109 0.78263568
N 1.42008206 0.72302028 0.76314663
O -0.22750511 -0.96880384 -1.35065407
H 1.46821640 -1.41991666 0.45583698
H 0.43090136 -0.91358605 1.78121247
H -2.36491817 -0.10015592 -0.30530868
H -1.62309583 0.35113632 1.17696320
H 2.38528960 0.63726303 1.07371945
H 1.44579589 1.07131348 -0.19348922
