11

N -1.49465755 -0.04462304 0.30370957
C -0.39358423 -0.72335458 -0.16666867
C 0.84125586 -0.69568973 0.72018230
N 1.25721059 0.71364709 0.89867649
O -0.40153603 -1.40285514 -1.19708677
H 1.61159929 -1.32637312 0.24778444
H 0.58716450 -1.19581016 1.67000870
H -2.30065236 0.01765936 -0.29880440
H -1.37024309 0.69779969 0.97721483
H 2.24011938 0.73170689 1.16246120
H 1.17872663 1.20959473 0.01290231
