22
0 1 C9H11NO
C                    -0.433387656088    -0.117218364348     0.033549614502
N                     0.788112343912    -0.292318364348     0.789349614502
C                     0.656512343912    -0.897118364348     2.117949614502
H                    -0.106787656088    -1.681918364348     2.113049614502
C                     2.028312343912     0.182881635652     0.314549614502
H                     1.582312343912    -1.380218364348     2.436049614502
H                     0.403112343912    -0.114718364348     2.839849614502
C                    -1.683187656088    -0.106618364348     0.674649614502
C                    -2.869887656088     0.240281635652    -1.425850385498
C                    -2.878587656088     0.057481635652    -0.042850385498
C                    -1.633887656088     0.186881635652    -2.075150385498
C                    -0.438487656088     0.020981635652    -1.358850385498
C                     3.237412343912     0.021581635652     1.276549614502
O                     2.199012343912     0.738181635652    -0.775650385498
H                    -1.773887656088    -0.198018364348     1.752549614502
H                    -3.815187656088     0.052081635652     0.506349614502
H                    -1.582887656088     0.268281635652    -3.158250385498
H                     0.474112343912    -0.036118364348    -1.943450385498
H                     3.458912343912    -1.051318364348     1.319849614502
H                     2.981512343912     0.388681635652     2.276149614502
H                    -3.743187656088     0.408581635652    -1.949450385498
H                     4.079912343912     0.582881635652     0.930149614502
