24

C          1.74620       -1.05080        0.18250
N          2.96770       -1.22590        0.93830
C          4.20790       -0.75070        0.46350
C          5.41700       -0.91200        1.42550
C          2.83610       -1.83070        2.26690
O          4.37860       -0.19540       -0.62670
C          0.49640       -1.04020        0.82360
C         -0.69030       -0.69330       -1.27690
C         -0.69900       -0.87610        0.10610
C          0.54570       -0.74670       -1.92620
C          1.74110       -0.91260       -1.20990
H          3.76190       -2.31380        2.58500
H          2.07280       -2.61550        2.26200
H          2.58270       -1.04830        2.98880
N          6.60930       -0.19800        0.91940
H          5.63850       -1.98490        1.46880
H          5.16110       -0.54490        2.42510
H          0.40570       -1.13160        1.90150
H         -1.63560       -0.88150        0.65530
H          0.59670       -0.66530       -3.00930
H          2.65370       -0.96970       -1.79450
H         -1.56360       -0.52500       -1.80050
H          6.84300       -0.54370       -0.01130
H          7.39510       -0.35950        1.54930
