24
0 1 C9H12N2O
C                    -0.847013877913    -0.182329855254    -0.034100468991
N                     0.374486122087    -0.357429855254     0.721699531009
C                     1.614686122087     0.117770144746     0.246899531009
C                     2.823786122087    -0.043529855254     1.208899531009
C                     0.242886122087    -0.962229855254     2.050299531009
O                     1.785386122087     0.673070144746    -0.843300468991
C                    -2.096813877913    -0.171729855254     0.606999531009
C                    -3.283513877913     0.175170144746    -1.493500468991
C                    -3.292213877913    -0.007629855254    -0.110500468991
C                    -2.047513877913     0.121770144746    -2.142800468991
C                    -0.852113877913    -0.044129855254    -1.426500468991
H                     1.168686122087    -1.445329855254     2.368399531009
H                    -0.520413877913    -1.747029855254     2.045399531009
H                    -0.010513877913    -0.179829855254     2.772199531009
N                     4.016086122087     0.670470144746     0.702799531009
H                     3.045286122087    -1.116429855254     1.252199531009
H                     2.567886122087     0.323570144746     2.208499531009
H                    -2.187513877913    -0.263129855254     1.684899531009
H                    -4.228813877913    -0.013029855254     0.438699531009
H                    -1.996513877913     0.203170144746    -3.225900468991
H                     0.060486122087    -0.101229855254    -2.011100468991
H                    -4.156813877913     0.343470144746    -2.017100468991
H                     4.249786122087     0.324770144746    -0.227900468991
H                     4.801886122087     0.508970144746     1.332699531009
