8

H -1.774028277812 -0.182574908928 -0.44331609055
C -1.36544692021 0.208925140954 0.488792538913
O -0.094718792765 0.8478234895 0.248962265254
C 0.841552936258 0.028644219458 -0.26251607168
H -1.249778537572 -0.607472228568 1.202356669216
H -2.003908419981 0.990089379105 0.893912600117
O 0.690808176686 -1.148917701955 -0.519122080011
H 1.770459436424 0.593575639468 -0.411809452167
