 xtb: 6.5.0 (97a52f5)
          11182308083D

  8  0  0     0  0            999 V2000
   -2.1963    0.8407    0.0417 H   0  0  0  0  0  0  0  0  0  0  0  0
   -1.4283    0.1030    0.2627 C   0  0  0  0  0  0  0  0  0  0  0  0
   -0.2993    0.4244   -0.5467 O   0  0  0  0  0  0  0  0  0  0  0  0
    0.8918    0.1130   -0.0680 C   0  0  0  0  0  0  0  0  0  0  0  0
   -1.7858   -0.8970    0.0109 H   0  0  0  0  0  0  0  0  0  0  0  0
   -1.1529    0.1326    1.3183 H   0  0  0  0  0  0  0  0  0  0  0  0
    1.1302   -0.4130    0.9779 O   0  0  0  0  0  0  0  0  0  0  0  0
    1.6555    0.4263   -0.7996 H   0  0  0  0  0  0  0  0  0  0  0  0
M  END
