14
1 1 C3H10N
H                     2.004294968947    -0.043160882134    -0.752602686365
C                     1.143528351328     0.610480758144    -0.617453790522
N                    -0.043858189019    -0.225138643960    -0.243066025285
H                    -0.178829109816    -0.918888275254    -0.990116401329
H                     0.922480066624     1.141587082537    -1.542311703639
H                     1.328403060538     1.317722374743     0.190401239918
C                    -1.294336664090     0.598069027206    -0.166165185807
C                     0.195289479681    -0.980341864903     1.029717865024
H                    -1.157250441885     1.350891252973     0.609471723460
H                    -1.461679087230     1.075415640150    -1.130814553061
H                     1.113201752119    -1.558172298887     0.929253804664
H                     0.290008648354    -0.257912359284     1.839737508200
H                    -2.129971574814    -0.054367806350     0.084062621022
H                    -0.650906876681    -1.642192163550     1.209905633676
