24

N 1.56751353 -0.53851935 1.45326037
C 0.55910056 -0.21349227 0.56657210
C -0.26567656 -1.32658228 0.02073103
C -1.56978886 -1.56094657 0.52231714
C 0.29468051 1.12477268 0.28198766
C 0.23177685 -2.14298203 -1.02478136
H 2.20072480 0.23488190 1.73446825
C -0.77061365 1.77104315 -0.46870010
N 0.65428281 3.36211409 0.28486712
C 1.19294419 2.18795091 0.75040694
C -0.51870798 3.11047098 -0.44114785
C -0.55625540 -3.17710784 -1.54616957
C -2.35218185 -2.59585749 -0.00460438
C -1.85157737 -3.41082161 -1.04049365
H 1.22992196 -1.95947732 -1.42810792
H -1.96203479 -0.93056229 1.32293009
H 1.08297962 4.25769735 0.46778499
O 2.24854377 2.08445344 1.43271725
H -0.16507672 -3.80178630 -2.35126327
H -3.35462849 -2.77030376 0.39023625
H -2.46407507 -4.21676121 -1.44920954
H -1.60248830 1.29139350 -0.96396846
H -1.07253055 3.92717982 -0.88290476
H 1.96755098 -1.46934850 1.34391465
