24

N 2.11101166 -0.37374694 -0.07485387
C 0.74658725 -0.14107938 -0.03078211
C -0.16235694 -1.29855692 -0.31730100
C -1.30272875 -1.13113848 -1.14552528
C 0.29084447 1.12155363 0.35711870
C 0.08103714 -2.57230007 0.26181907
H 2.72841698 0.45627347 0.01408979
C -1.03924531 1.64027554 0.64965818
N 0.45029651 3.33337652 0.84180887
C 1.22125006 2.25128274 0.49584697
C -0.89803137 2.96487096 0.93775656
C -0.78366519 -3.64421825 0.00605955
C -2.16153142 -2.20837730 -1.39681593
C -1.90929064 -3.47058122 -0.82365705
H 0.94115741 -2.71500871 0.91943080
H -1.50459605 -0.16091199 -1.60368340
H 0.84905079 4.24780706 0.99697831
O 2.47148767 2.26722590 0.33017878
H -0.58555460 -4.61789885 0.45774139
H -3.03110289 -2.06682206 -2.04114310
H -2.58163773 -4.30770776 -1.02111098
H -1.96897565 1.08985542 0.64735981
H -1.64603103 3.69742371 1.20722966
H 2.40799362 -1.12418702 -0.69736069
