24

N 1.29742209 -0.48446769 1.75169502
C 0.46359551 -0.20024635 0.68785160
C -0.31109810 -1.32581535 0.09656613
C -1.41372446 -1.88038135 0.79233840
C 0.31019371 1.11752932 0.26263404
C 0.00497527 -1.80835588 -1.19725137
H 1.91085748 0.28831794 2.07548237
C -0.58804731 1.73240358 -0.70165449
N 0.77346797 3.33214937 0.14493433
C 1.17030322 2.18543476 0.78762837
C -0.27734934 3.05901049 -0.74254456
C -0.75210164 -2.83836376 -1.76953612
C -2.16409586 -2.91256214 0.21519809
C -1.83883391 -3.39860339 -1.06764639
H 0.83889304 -1.37017587 -1.74940692
H -1.67462795 -1.50042521 1.78225110
H 1.21074621 4.22462654 0.32235276
O 2.09526167 2.10440158 1.64091824
H -0.49925833 -3.20560211 -2.76570968
H -3.00694620 -3.33885721 0.76210874
H -2.42740601 -4.20123114 -1.51569178
H -1.35250406 1.24047802 -1.28554233
H -0.71127609 3.85240475 -1.33485290
H 1.66593508 -1.43425991 1.77872234
