9

O 0.93789600 -0.54106726 -0.45506964
C 0.21570033 0.43562074 0.30600997
C -1.24730480 0.03077145 0.29758316
H 0.33601567 1.43595846 -0.13786523
H 0.59405192 0.48510969 1.33869737
H -1.76425964 0.47285477 -0.55871439
H -1.74610687 0.38005312 1.20592724
H -1.36034921 -1.05607082 0.24792250
H 1.87608960 -0.28564115 -0.45296899
