9

O 1.24020150 -0.29590572 -0.25133988
C 0.31406723 0.45600143 0.55677811
C -1.10706701 0.04736078 0.20626916
H 0.45699224 1.53709524 0.40852025
H 0.50271668 0.26491623 1.62415739
H -1.33182870 0.26222041 -0.84212908
H -1.82373502 0.59464998 0.82509698
H -1.25503999 -1.02189111 0.38298009
H 0.84542408 -0.48685625 -1.11880901
