9

O 1.18130877 -0.00117330 -0.54202085
C 0.27799313 0.63318401 0.38425412
C -1.08654921 -0.02928281 0.28007133
H 0.18126321 1.70281917 0.14388416
H 0.66143157 0.56150272 1.41323158
H -1.48251278 0.05729279 -0.73587209
H -1.79416951 0.45548396 0.95835061
H -1.03389457 -1.08776208 0.54997068
H 0.93686238 -0.93447646 -0.66034854
