9

O 0.94282589 -0.50882098 -0.48268630
C 0.23672449 0.36982752 0.40260936
C -1.23539133 0.03505047 0.29155650
H 0.40910233 1.42456964 0.13769036
H 0.57944387 0.23386550 1.43956373
H -1.58935512 0.18166194 -0.73275642
H -1.82584881 0.67571629 0.95228193
H -1.41806561 -1.00610615 0.57269675
H 1.74229728 -0.04817523 -0.78943391
