9

O 0.76879132 0.48035583 -0.88434546
C 0.26255863 0.14561436 0.41393441
C -1.24791287 0.04539607 0.30688791
H 0.54362619 0.90692871 1.15789987
H 0.68253197 -0.81073531 0.76225117
H -1.54903746 -0.97335900 0.04711968
H -1.63976809 0.72775727 -0.45319711
H -1.71650654 0.29957351 1.26177808
H 1.73745183 0.53605656 -0.82080757
