9

O 0.93225685 -0.16387063 -0.73840412
C 0.22413520 0.52343844 0.30290973
C -1.20383480 0.01991252 0.28830797
H 0.24225066 1.61009883 0.12981422
H 0.68239378 0.34333885 1.28815413
H -1.67094993 0.21178001 -0.68200610
H -1.79590143 0.52275476 1.05810672
H -1.23729238 -1.05651346 0.47873340
H 1.66867403 -0.65335031 -0.33409295
