9

O 1.17720128 -0.41678705 -0.22788751
C 0.30257575 0.41671662 0.54954486
C -1.13125954 0.03683061 0.22897588
H 0.47949211 1.48207080 0.33672282
H 0.49620445 0.27393578 1.62341821
H -1.35432118 0.19694705 -0.82951471
H -1.82680558 0.63939763 0.81969667
H -1.31025880 -1.01674897 0.46250134
H 1.00890450 -0.25477145 -1.17193455
