9

O 1.01167787 -0.53791218 -0.35870680
C 0.25806549 0.36308084 0.46500311
C -1.20731099 0.03341751 0.27590480
H 0.45020402 1.41242427 0.19140707
H 0.54195346 0.24924899 1.52208791
H -1.50234051 0.16302989 -0.76916124
H -1.83002299 0.68809529 0.89184934
H -1.41104210 -1.00194841 0.56398576
H 1.53054775 -0.01184620 -0.99084796
