9

O 1.09451905 -0.50413541 -0.26606928
C 0.28358712 0.38211461 0.51877990
C -1.16725713 0.03387966 0.25383445
H 0.47532908 1.43502783 0.25995984
H 0.50996530 0.26451213 1.58921643
H -1.41396794 0.16397942 -0.80363242
H -1.82933852 0.67489406 0.84244736
H -1.36867258 -1.00611520 0.52613786
H 1.25756863 -0.08656811 -1.12915015
