9

O 0.90155467 -0.42213793 -0.60694391
C 0.22379479 0.40302170 0.34841650
C -1.24440341 0.03537182 0.29896514
H 0.35293061 1.46990640 0.10968107
H 0.61853122 0.23557088 1.36220112
H -1.65330814 0.20544342 -0.70124596
H -1.81492997 0.63961307 1.00989807
H -1.38811620 -1.01863470 0.55371584
H 1.84568041 -0.19056666 -0.58316686
