9

O 0.78092657 0.28705477 -0.90488992
C 0.25789155 0.19658668 0.42610687
C -1.24383294 0.04120160 0.30840026
H 0.49674434 1.10211417 1.00493405
H 0.68493019 -0.66709587 0.95855196
H -1.49720951 -0.86453593 -0.25008840
H -1.68146314 0.89851738 -0.21109175
H -1.70167525 -0.02850047 1.29901327
H 1.74542419 0.39224467 -0.83941733
