9

O 0.84954999 -0.09683126 -0.83036568
C 0.24308650 0.31052509 0.40322785
C -1.25020382 0.03517772 0.30156888
H 0.42260549 1.38042560 0.59103883
H 0.67705273 -0.24089202 1.25171349
H -1.51599720 -0.39957268 -0.66647716
H -1.82175765 0.95971511 0.42280647
H -1.56728518 -0.66336822 1.08097838
H 1.80468314 0.07240866 -0.76296807
