9

O 0.81185369 0.09475227 -0.88748565
C 0.25057851 0.25302937 0.42190947
C -1.24706306 0.03550187 0.30646649
H 0.45939730 1.26126434 0.81174657
H 0.68942966 -0.47034290 1.12621408
H -1.48567925 -0.66787965 -0.49672004
H -1.75546536 0.97865568 0.08701511
H -1.65313727 -0.36089762 1.24113572
H 1.77181977 0.23350563 -0.81875975
