9

O 1.18136431 -0.00080033 -0.54212645
C 0.27808375 0.63434574 0.38394397
C -1.08643393 -0.02908865 0.28021485
H 0.18134882 1.70386378 0.14322591
H 0.66009833 0.55853185 1.41311715
H -1.48211782 0.05712704 -0.73591705
H -1.79458363 0.45534956 0.95851252
H -1.03305621 -1.08758228 0.55056336
H 0.93703038 -0.93415973 -0.66001425
