9

O 1.01003797 -0.69355391 0.12791509
C 0.19325217 0.48361248 0.14569055
C -1.24412713 0.03088018 0.29425956
H 0.31155444 1.05810619 -0.78591963
H 0.46879471 1.14072826 0.98473761
H -1.91791886 0.89205928 0.30885181
H -1.38078426 -0.52566922 1.22594485
H -1.53458613 -0.61631262 -0.53842742
H 1.93551009 -0.41226163 0.02846858
