24

H 0.275027733527 0.601751848832 -0.979504168655
N 0.242298906385 -0.043140654725 -0.177753017175
C 1.316997121058 -0.909125317038 0.056542520031
C 2.558538734438 -0.587463414054 -0.5067383816
C -0.880642322475 0.068263392773 0.562690988242
C 1.180956063197 -2.082187156076 0.809737114708
C -1.893247077799 0.924501204597 0.214490717202
N -2.971185255743 2.510919431283 -0.965355844095
C -3.14501857058 1.215171313997 0.870084915556
C -1.798999845747 1.781383565741 -0.969885462189
C -3.771027606004 2.16810443537 0.128790837892
C 2.290204628298 -2.897373119597 1.022853206273
C 3.654287225059 -1.420598217922 -0.304384969909
C 3.529265950718 -2.575275103073 0.46899580977
H 0.212088069557 -2.377444386564 1.2015702875
H 2.658110190303 0.324871714737 -1.090973635833
H -3.192564681559 3.193169078428 -1.67839382531
O -0.877064488383 1.86725571265 -1.808459519845
H 2.176003419966 -3.805384825829 1.609470430956
H 4.61203624715 -1.159372459097 -0.746885432141
H -3.529082075035 0.755622844136 1.771330218802
H -4.728729176243 2.647864710674 0.278561103459
H 4.386724046876 -3.221921243859 0.632035426298
H -0.939222822094 -0.540616592424 1.462460195465
