24

H -0.27662037 -0.26649882 -1.21968225
N 0.09971229 -0.28737175 -0.25099138
C 1.25208520 -1.05384560 0.02395642
C 2.47489855 -0.41862387 0.34757108
C -0.61111475 0.48456935 0.62886606
C 1.20762204 -2.46433946 -0.07541400
C -1.74232036 1.21183354 0.25293897
N -3.39163606 2.01105416 -1.07635929
C -2.58247718 2.09860989 1.02783124
C -2.29800321 1.17911540 -1.10850120
C -3.55897797 2.56002257 0.19854402
C 2.35960644 -3.22232351 0.17222093
C 3.62085807 -1.18627375 0.59297158
C 3.57473038 -2.59273277 0.51017163
H 0.27645248 -2.96866038 -0.34219519
H 2.53242861 0.67022230 0.40762369
H -3.96632360 2.17564786 -1.88996093
O -1.87873294 0.53996924 -2.10306236
H 2.30961783 -4.31018087 0.09831927
H 4.55600817 -0.68395966 0.84706091
H -2.46510030 2.35343371 2.07195767
H -4.37461556 3.24102795 0.39835330
H 4.47048325 -3.18679588 0.70064040
H -0.22282604 0.55508035 1.64842241
