24

H 0.38657063 0.78586590 -0.71251208
N 0.25400579 -0.02987127 -0.08091901
C 1.35981996 -0.90552203 0.11127448
C 2.51504225 -0.75081849 -0.69809511
C -1.01126255 -0.05687875 0.45484261
C 1.34131325 -1.94355713 1.07991039
C -1.98172774 0.90242141 0.14576098
N -2.92852493 2.70736228 -0.84155423
C -3.33406880 1.05248117 0.63740817
C -1.75197712 1.99743161 -0.80981418
C -3.87095964 2.14244252 0.02299216
C 2.45092369 -2.78642965 1.23396557
C 3.61688873 -1.60016254 -0.53456686
C 3.59721935 -2.62360299 0.43216772
H 0.47590198 -2.10160483 1.72442012
H 2.55620480 0.03383029 -1.45755290
H -3.04973298 3.52284238 -1.42428377
O -0.71231839 2.25061334 -1.46483702
H 2.42085936 -3.57625790 1.98701197
H 4.49678430 -1.46174264 -1.16565849
H -3.83478198 0.41995295 1.35722595
H -4.85469844 2.57985729 0.12097562
H 4.45866970 -3.28218939 0.55809250
H -1.23439820 -0.83748654 1.18502541
