19

C 1.19714415 0.40194102 2.35709748
N 0.94031828 -0.32993887 1.19234025
C -0.25917750 -0.11500569 0.39410373
C -0.90987542 -1.21586885 -0.22202893
C 2.00623977 -1.19811498 0.63286169
C -0.72361261 1.19284184 0.10103822
C -1.82567465 1.38076782 -0.74280455
C -2.48140147 0.28830192 -1.32078119
C -2.01251192 -1.00409671 -1.06058880
H -0.23899072 2.05648517 0.53522952
H -0.57368972 -2.22926248 -0.04784555
O 0.50132034 1.30251480 2.82128152
H 2.98906855 -0.90533304 1.00272952
H 2.03395469 -1.12178749 -0.45488387
H 1.83215126 -2.23821970 0.90976654
H -2.17478758 2.39569250 -0.94192608
H -2.50907667 -1.86510103 -1.51234387
H -3.34243286 0.44254549 -1.97425562
H 2.17471906 0.16042528 2.80159701
