19

C 1.76422469 0.87708351 1.61768455
N 1.14100271 -0.18330766 0.93882134
C -0.10084443 -0.00546824 0.16696470
C -0.44257303 -0.91279914 -0.87485876
C 1.58315533 -1.56939328 1.25585507
C -1.03759340 1.01381494 0.48963509
C -2.24321419 1.12703038 -0.21406368
C -2.55771545 0.23986619 -1.24703381
C -1.65390815 -0.77707401 -1.56726725
H -0.83399669 1.71990435 1.28158129
H 0.22311796 -1.71181046 -1.16958755
O 1.41313707 2.05549074 1.64357627
H 2.56195029 -1.57792632 1.73496606
H 1.65571997 -2.17572545 0.35479812
H 0.86954174 -2.04424227 1.93070301
H -2.93939671 1.92476778 0.05146199
H -1.88842074 -1.47925080 -2.36979547
H -3.49769931 0.33741455 -1.79369991
H 2.60719835 0.54041221 2.24084691
