19

C 2.35457957 0.22578999 0.45601183
N 1.12209895 -0.23311271 0.93764481
C -0.12171651 -0.05791982 0.19603491
C -0.16668478 -0.15974472 -1.21812936
C 1.09791884 -1.10938727 2.13595093
C -1.32215965 0.25207435 0.88825189
C -2.52037951 0.42208754 0.18149948
C -2.55706467 0.30426702 -1.21211523
C -1.37630102 0.01143338 -1.90295986
H -1.33218317 0.36336465 1.96430802
H 0.73195452 -0.36721353 -1.78222028
O 2.56216685 0.78152968 -0.62077656
H 0.82800378 -0.53121680 3.02034619
H 2.07205266 -1.56512067 2.31464273
H 0.37296734 -1.91461285 2.01039024
H -3.43351018 0.65621272 0.73228900
H -1.38665927 -0.07585774 -2.99097823
H -3.49403257 0.44342717 -1.75503940
H 3.19262981 -0.04721439 1.11543488
