19

C 2.34046284 0.30587073 0.52679111
N 1.12040730 -0.24495103 0.94036106
C -0.11674829 -0.07106254 0.17799102
C -0.11104218 -0.06812433 -1.24149485
C 1.07577138 -1.03106304 2.19931344
C -1.36451940 0.07147557 0.84343503
C -2.54840340 0.20711931 0.10524147
C -2.52899218 0.20957974 -1.29324383
C -1.30667378 0.06816232 -1.95766610
H -1.42708017 0.08340254 1.92282349
H 0.81714573 -0.16538430 -1.78706193
O 2.54821466 0.95047756 -0.49924687
H 2.06937458 -1.37116844 2.49124324
H 0.44555809 -1.91294346 2.07774987
H 0.67365387 -0.42479047 3.01151368
H -3.49637870 0.31595148 0.63591826
H -1.27366561 0.06949945 -3.04882382
H -3.45537067 0.31932819 -1.86037595
H 3.16196893 0.08740672 1.22611668
