24

C -0.66705631 -0.40580469 0.11764501
N 0.50120021 -0.97293822 0.76729098
C 1.77550814 -0.46946692 0.48548458
C 2.00878511 1.01581239 0.88126291
C 0.32141913 -2.25558869 1.48068266
O 2.76527032 -1.20907026 0.47668846
C -1.75075377 0.07056474 0.89411016
C -2.92352310 0.73524829 -1.13342136
C -2.86731646 0.63520981 0.26268223
C -1.85078983 0.27006557 -1.90482956
C -0.72368708 -0.29517149 -1.29318695
H 1.25064731 -2.82690529 1.44978738
H -0.46468789 -2.85187072 1.01611967
H 0.06422034 -2.06727201 2.52293435
N 3.32019352 1.54049479 0.48956055
H 1.91743257 1.10937582 1.97480149
H 1.22888137 1.66197340 0.44700063
H -1.72096582 0.00480161 1.98364348
H -3.69815114 0.99967765 0.86954055
H -1.88822444 0.34519419 -2.99320377
H 0.10311177 -0.65442575 -1.90963588
H 4.01795566 0.86898904 0.81785295
H -3.79750988 1.17523986 -1.61780004
H 3.38803126 1.48286887 -0.52781748
