24

C -0.86142339 -0.09726612 0.12599465
N 0.30525126 -0.16191172 1.00608392
C 1.46467077 0.59158024 0.73045569
C 2.81019035 -0.20340386 0.73355425
C 0.20214345 -1.07845005 2.16536319
O 1.41679605 1.46476498 -0.14423325
C -2.13875664 0.22041007 0.65415404
C -3.12175989 0.02185017 -1.56513671
C -3.25434812 0.26841870 -0.19307835
C -1.86078284 -0.27835841 -2.09481734
C -0.73158363 -0.32876646 -1.26679761
H 1.17000068 -1.48573533 2.44923141
H -0.45037966 -1.91880959 1.92483082
H -0.21138771 -0.54268991 3.02016958
N 3.99547651 0.63652046 0.53397143
H 2.78191202 -0.95330053 -0.07248569
H 2.94631453 -0.75507943 1.67485677
H -2.26474909 0.42749347 1.71888701
H -4.23386246 0.50800392 0.22523839
H -1.74837933 -0.46522842 -3.16438554
H 0.24508090 -0.55250276 -1.69966401
H 3.80841569 1.21582782 -0.28777690
H -3.99539371 0.06468836 -2.21850265
H 4.03654528 1.30894341 1.30128291
