24

C -0.65709736 -0.40416122 0.21717987
N 0.49560321 -0.99709275 0.88033618
C 1.78473537 -0.46991438 0.71633640
C 1.93384608 1.07337539 0.57010901
C 0.30170774 -2.36374369 1.41860759
O 2.80212148 -1.11996478 0.97685995
C -1.78481542 -0.01065893 0.97709264
C -2.88268092 0.78637769 -1.04440120
C -2.88580284 0.57831528 0.34071194
C -1.76740657 0.40276970 -1.79989285
C -0.65615913 -0.18801564 -1.18345181
H 1.24824367 -2.90629995 1.40090572
H -0.42771264 -2.91801390 0.82668839
H -0.04021670 -2.30705549 2.45199597
N 3.30571194 1.52258838 0.31098711
H 1.58817271 1.55074727 1.50055357
H 1.29081466 1.45597626 -0.23719896
H -1.80034281 -0.15798615 2.05893659
H -3.75071068 0.87798351 0.93519956
H -1.75897003 0.56148583 -2.87971200
H 0.20289401 -0.48552440 -1.78861437
H 3.90334031 1.07612968 1.01002712
H -3.74389864 1.24634463 -1.53260644
H 3.60861258 1.10334267 -0.56945696
