24

C -0.86062943 -0.17472393 -0.00471999
N 0.36717348 -0.37513562 0.76263264
C 1.56280717 0.25201188 0.37534774
C 2.82568154 0.11574504 1.27437201
C 0.29754256 -1.40477419 1.82732632
O 1.67229516 0.92277864 -0.65419700
C -2.04161895 0.25660973 0.65011707
C -3.25236383 0.19574904 -1.46185146
C -3.22365846 0.43346807 -0.08210996
C -2.08746139 -0.22497532 -2.11538290
C -0.89359957 -0.40206550 -1.40349190
H 1.25916675 -1.89366923 1.97585303
H -0.41551659 -2.18327429 1.55240869
H -0.01540311 -0.94782642 2.76623459
N 3.98716274 0.88710344 0.81926896
H 3.13118947 -0.94087375 1.32026786
H 2.58696901 0.42310472 2.30466815
H -2.03963317 0.45411789 1.72395869
H -4.12768652 0.76492489 0.43229091
H -2.10106284 -0.40822630 -3.19137492
H 0.00876680 -0.71739280 -1.92966336
H 4.13122481 0.66459272 -0.16736246
H -4.17656733 0.33816074 -2.02535154
H 3.71521370 1.87157054 0.80795286
