24

C -0.73534592 -0.27084735 0.32881116
N 0.28027042 -0.22256904 1.38536749
C 1.58741310 0.26570384 1.21838310
C 2.21449660 0.44871490 -0.19208557
C -0.06641216 -0.96774171 2.61968256
O 2.19235968 0.80339015 2.15159061
C -1.96598777 0.40522824 0.53415001
C -2.69869864 -0.18509996 -1.70918308
C -2.93362166 0.43821966 -0.47870927
C -1.48457741 -0.84622999 -1.92603081
C -0.50151577 -0.88638416 -0.92712691
H 0.83909015 -1.33079890 3.10697602
H -0.70824969 -1.82071374 2.39683126
H -0.57831337 -0.30266902 3.31536775
N 3.61711104 0.88095164 -0.18147976
H 1.62956917 1.18528545 -0.76521444
H 2.17580665 -0.49629428 -0.74974988
H -2.16100553 0.91734515 1.47880675
H -3.87472914 0.96267285 -0.30322667
H -1.29886784 -1.34498145 -2.87933109
H 0.41226458 -1.44867176 -1.11787486
H 3.67063069 1.70415072 0.42188264
H -3.45695267 -0.15678530 -2.49401562
H 4.15525148 0.17512108 0.32337561
