
 OpenBabel11182308013D

 34 36  0  0  0  0  0  0  0  0999 V2000
   -1.8695   -0.6048   -2.0560 N   0  0  0  0  0  0  0  0  0  0  0  0
   -3.1320   -0.3089   -1.5560 C   0  0  0  0  0  0  0  0  0  0  0  0
   -4.0645   -1.4409   -1.7617 C   0  0  0  0  0  0  0  0  0  0  0  0
   -4.8914   -1.4714   -2.8949 C   0  0  0  0  0  0  0  0  0  0  0  0
   -3.5693    0.8496   -1.0094 C   0  0  0  0  0  0  0  0  0  0  0  0
   -4.1183   -2.5003   -0.8459 C   0  0  0  0  0  0  0  0  0  0  0  0
   -0.6903   -0.6933   -1.2769 C   0  0  0  0  0  0  0  0  0  0  0  0
   -0.6990   -0.8761    0.1061 C   0  0  0  0  0  0  0  0  0  0  0  0
    0.5457   -0.7467   -1.9262 C   0  0  0  0  0  0  0  0  0  0  0  0
    0.4964   -1.0402    0.8236 C   0  0  0  0  0  0  0  0  0  0  0  0
    1.7411   -0.9126   -1.2099 C   0  0  0  0  0  0  0  0  0  0  0  0
    1.7462   -1.0508    0.1825 C   0  0  0  0  0  0  0  0  0  0  0  0
   -1.6813   -0.1001   -2.9211 H   0  0  0  0  0  0  0  0  0  0  0  0
   -4.8891    1.2114   -0.4369 C   0  0  0  0  0  0  0  0  0  0  0  0
   -3.5225    3.0485   -0.3040 N   0  0  0  0  0  0  0  0  0  0  0  0
   -2.7104    2.0976   -0.8973 C   0  0  0  0  0  0  0  0  0  0  0  0
   -4.7872    2.5483   -0.0370 C   0  0  0  0  0  0  0  0  0  0  0  0
   -5.0046   -3.5602   -1.0469 C   0  0  0  0  0  0  0  0  0  0  0  0
   -5.7765   -2.5326   -3.0926 C   0  0  0  0  0  0  0  0  0  0  0  0
   -5.8350   -3.5733   -2.1668 C   0  0  0  0  0  0  0  0  0  0  0  0
   -3.4715   -2.5060    0.0266 H   0  0  0  0  0  0  0  0  0  0  0  0
   -4.8531   -0.6675   -3.6257 H   0  0  0  0  0  0  0  0  0  0  0  0
   -1.6356   -0.8815    0.6553 H   0  0  0  0  0  0  0  0  0  0  0  0
    0.5967   -0.6653   -3.0093 H   0  0  0  0  0  0  0  0  0  0  0  0
    0.4057   -1.1316    1.9015 H   0  0  0  0  0  0  0  0  0  0  0  0
    2.6537   -0.9697   -1.7945 H   0  0  0  0  0  0  0  0  0  0  0  0
   -3.2052    3.9879   -0.1202 H   0  0  0  0  0  0  0  0  0  0  0  0
   -1.5657    2.2935   -1.2575 O   0  0  0  0  0  0  0  0  0  0  0  0
   -5.0480   -4.3762   -0.3303 H   0  0  0  0  0  0  0  0  0  0  0  0
   -6.4213   -2.5480   -3.9676 H   0  0  0  0  0  0  0  0  0  0  0  0
   -6.5276   -4.3975   -2.3196 H   0  0  0  0  0  0  0  0  0  0  0  0
    2.6254   -1.1554    0.7127 H   0  0  0  0  0  0  0  0  0  0  0  0
   -5.7160    0.6000   -0.3509 H   0  0  0  0  0  0  0  0  0  0  0  0
   -5.5509    3.0891    0.3982 H   0  0  0  0  0  0  0  0  0  0  0  0
  1  2  1  0  0  0  0
  1  7  1  0  0  0  0
  1 13  1  0  0  0  0
  2  3  1  0  0  0  0
  3  6  2  0  0  0  0
  3  4  1  0  0  0  0
  4 19  2  0  0  0  0
  4 22  1  0  0  0  0
  5 14  1  0  0  0  0
  5  2  2  0  0  0  0
  5 16  1  0  0  0  0
  6 18  1  0  0  0  0
  6 21  1  0  0  0  0
  7  8  2  0  0  0  0
  7  9  1  0  0  0  0
  8 10  1  0  0  0  0
  8 23  1  0  0  0  0
  9 11  2  0  0  0  0
  9 24  1  0  0  0  0
 10 12  2  0  0  0  0
 10 25  1  0  0  0  0
 11 12  1  0  0  0  0
 11 26  1  0  0  0  0
 12 32  1  0  0  0  0
 14 17  2  0  0  0  0
 14 33  1  0  0  0  0
 15 16  1  0  0  0  0
 15 17  1  0  0  0  0
 15 27  1  0  0  0  0
 16 28  2  0  0  0  0
 17 34  1  0  0  0  0
 18 20  2  0  0  0  0
 18 29  1  0  0  0  0
 19 20  1  0  0  0  0
 19 30  1  0  0  0  0
 20 31  1  0  0  0  0
M  END
$$$$
