
     RDKit          3D

 24 25  0  0  0  0  0  0  0  0999 V2000
    2.8306   -0.2821   -0.9075 C   0  0  0  0  0  0  0  0  0  0  0  0
    3.7619    0.2071   -0.0539 C   0  0  0  0  0  0  0  0  0  0  0  0
    3.1793    0.7789    0.9957 N   0  0  0  0  0  0  0  0  0  0  0  0
    1.8248    0.6580    0.8174 C   0  0  0  0  0  0  0  0  0  0  0  0
    0.9594    1.1928    1.7863 O   0  0  0  0  0  0  0  0  0  0  0  0
    1.5649    0.0060   -0.3463 C   0  0  0  0  0  0  0  0  0  0  0  0
    0.3031   -0.4156   -0.9121 C   0  0  0  0  0  0  0  0  0  0  0  0
   -1.0113   -0.4145   -0.3204 C   0  0  0  0  0  0  0  0  0  0  0  0
   -1.3089   -0.4525    1.0201 C   0  0  0  0  0  0  0  0  0  0  0  0
   -2.6299   -0.3332    1.4659 C   0  0  0  0  0  0  0  0  0  0  0  0
   -3.6564   -0.1787    0.5721 C   0  0  0  0  0  0  0  0  0  0  0  0
   -3.3658   -0.1434   -0.7624 C   0  0  0  0  0  0  0  0  0  0  0  0
   -2.0823   -0.2565   -1.2224 C   0  0  0  0  0  0  0  0  0  0  0  0
    0.3280   -0.8645   -2.1639 N   0  0  0  0  0  0  0  0  0  0  0  0
    2.9618   -0.8058   -1.8526 H   0  0  0  0  0  0  0  0  0  0  0  0
    4.8426    0.1336   -0.2203 H   0  0  0  0  0  0  0  0  0  0  0  0
    3.6782    1.2371    1.8082 H   0  0  0  0  0  0  0  0  0  0  0  0
    0.7043    2.1792    1.6753 H   0  0  0  0  0  0  0  0  0  0  0  0
   -0.5307   -0.6393    1.7410 H   0  0  0  0  0  0  0  0  0  0  0  0
   -2.8137   -0.3662    2.5224 H   0  0  0  0  0  0  0  0  0  0  0  0
   -4.6746   -0.0857    0.8948 H   0  0  0  0  0  0  0  0  0  0  0  0
   -4.1546   -0.0224   -1.5201 H   0  0  0  0  0  0  0  0  0  0  0  0
   -1.9091   -0.2192   -2.3058 H   0  0  0  0  0  0  0  0  0  0  0  0
    1.1983   -0.9130   -2.7115 H   0  0  0  0  0  0  0  0  0  0  0  0
  1  2  2  0
  2  3  1  0
  3  4  1  0
  4  5  1  0
  4  6  2  0
  6  7  1  0
  7  8  1  0
  8  9  2  0
  9 10  1  0
 10 11  2  0
 11 12  1  0
 12 13  2  0
  7 14  2  3
  6  1  1  0
 13  8  1  0
  1 15  1  0
  2 16  1  0
  3 17  1  0
  5 18  1  0
  9 19  1  0
 10 20  1  0
 11 21  1  0
 12 22  1  0
 13 23  1  0
 14 24  1  0
M  END
