
 OpenBabel11182308033D

 24 25  0  0  0  0  0  0  0  0999 V2000
   -3.0000    0.4078   -0.5610 C   0  0  0  0  0  0  0  0  0  0  0  0
   -3.2773    1.3464   -1.4423 C   0  0  0  0  0  0  0  0  0  0  0  0
   -2.0657    1.9089   -1.9115 N   0  0  0  0  0  0  0  0  0  0  0  0
   -1.0322    1.3489   -1.3486 C   0  0  0  0  0  0  0  0  0  0  0  0
    0.2495    1.7148   -1.6308 O   0  0  0  0  0  0  0  0  0  0  0  0
   -1.5238    0.3373   -0.4334 C   0  0  0  0  0  0  0  0  0  0  0  0
   -0.8649   -0.4640    0.3825 C   0  0  0  0  0  0  0  0  0  0  0  0
    0.5796   -0.4981    0.4635 C   0  0  0  0  0  0  0  0  0  0  0  0
    1.3939   -0.6462   -0.6335 C   0  0  0  0  0  0  0  0  0  0  0  0
    2.7844   -0.6431   -0.5038 C   0  0  0  0  0  0  0  0  0  0  0  0
    3.3626   -0.4908    0.7365 C   0  0  0  0  0  0  0  0  0  0  0  0
    2.5261   -0.3452    1.8220 C   0  0  0  0  0  0  0  0  0  0  0  0
    1.1450   -0.3458    1.7103 C   0  0  0  0  0  0  0  0  0  0  0  0
   -1.5551   -1.3648    1.2550 N   0  0  0  0  0  0  0  0  0  0  0  0
   -3.6684   -0.2208   -0.0058 H   0  0  0  0  0  0  0  0  0  0  0  0
   -4.2932    1.6461   -1.7638 H   0  0  0  0  0  0  0  0  0  0  0  0
    0.4729    2.1607   -2.5273 H   0  0  0  0  0  0  0  0  0  0  0  0
    1.0114   -0.7947   -1.6342 H   0  0  0  0  0  0  0  0  0  0  0  0
    3.4331   -0.7588   -1.3652 H   0  0  0  0  0  0  0  0  0  0  0  0
    4.4305   -0.4861    0.8559 H   0  0  0  0  0  0  0  0  0  0  0  0
    2.9711   -0.2227    2.8221 H   0  0  0  0  0  0  0  0  0  0  0  0
    0.5290   -0.2249    2.6170 H   0  0  0  0  0  0  0  0  0  0  0  0
   -2.3218   -1.9250    0.8412 H   0  0  0  0  0  0  0  0  0  0  0  0
   -1.2867   -1.4399    2.2550 H   0  0  0  0  0  0  0  0  0  0  0  0
  1  2  2  0  0  0  0
  1 15  1  0  0  0  0
  2  3  1  0  0  0  0
  2 16  1  0  0  0  0
  3  4  2  0  0  0  0
  4  5  1  0  0  0  0
  4  6  1  0  0  0  0
  5 17  1  0  0  0  0
  6  7  2  3  0  0  0
  6  1  1  0  0  0  0
  7  8  1  0  0  0  0
  7 14  1  0  0  0  0
  8  9  2  0  0  0  0
  9 10  1  0  0  0  0
  9 18  1  0  0  0  0
 10 11  2  0  0  0  0
 10 19  1  0  0  0  0
 11 12  1  0  0  0  0
 11 20  1  0  0  0  0
 12 13  2  0  0  0  0
 12 21  1  0  0  0  0
 13  8  1  0  0  0  0
 13 22  1  0  0  0  0
 14 23  1  0  0  0  0
 14 24  1  0  0  0  0
M  END
$$$$
